<?xml version="1.0" encoding="UTF-8"?>
<!-- generated on 2019-03-19 15:15:04.954379 by $Id$ via randomTrips.py
  options: 
-->
<routes xmlns:xsi="http://www.w3.org/2001/XMLSchema-instance" xsi:noNamespaceSchemaLocation="http://sumo.dlr.de/xsd/routes_file.xsd">
    <vType id="veh_passenger" vClass="passenger">
    </vType>
    <trip id="veh0" depart="0.00" departLane="best" departSpeed="max" from="136795225" to="-128003519#0" type="veh_passenger"/>
    <trip id="veh1" depart="2.11" departLane="best" departSpeed="max" from="-347473951" to="-275134824#3" type="veh_passenger"/>
    <trip id="veh2" depart="4.21" departLane="best" from="28219909#7" to="28219966#2" type="veh_passenger"/>
    <trip id="veh3" depart="6.32" departLane="best" from="47053168#5" to="-134990877" type="veh_passenger"/>
    <trip id="veh4" depart="8.42" departLane="best" from="-52675839#0" to="-128005779" type="veh_passenger"/>
    <trip id="veh6" depart="12.64" departLane="best" from="-128006550" to="-196748364" type="veh_passenger"/>
    <trip id="veh9" depart="18.96" departLane="best" from="334058300#4" to="-113741470" type="veh_passenger"/>
    <trip id="veh10" depart="21.06" departLane="best" from="334058300#1" to="28710275#4" type="veh_passenger"/>
    <trip id="veh11" depart="23.17" departLane="best" from="-46731893#6" to="-136795225" type="veh_passenger"/>
    <trip id="veh12" depart="25.27" departLane="best" from="563917574" to="-422001144#0" type="veh_passenger"/>
    <trip id="veh13" depart="27.38" departLane="best" departSpeed="max" from="-136795449#1" to="-135338111#0" type="veh_passenger"/>
    <trip id="veh15" depart="31.59" departLane="best" from="334058300#2" to="330002929" type="veh_passenger"/>
    <trip id="veh16" depart="33.70" departLane="best" from="128196500#0" to="72675518#0" type="veh_passenger"/>
    <trip id="veh17" depart="35.81" departLane="best" departSpeed="max" from="-47053173#1" to="136795449#0" type="veh_passenger"/>
    <trip id="veh18" depart="37.91" departLane="best" from="366892709#1" to="231248929#1" type="veh_passenger"/>
    <trip id="veh19" depart="40.02" departLane="best" from="46731892#2" to="187006371" type="veh_passenger"/>
    <trip id="veh20" depart="42.12" departLane="best" from="231248927#3" to="-128196092" type="veh_passenger"/>
    <trip id="veh22" depart="46.34" departLane="best" from="-169375094#0" to="-290584085" type="veh_passenger"/>
    <trip id="veh23" depart="48.44" departLane="best" departSpeed="max" from="136622148#0" to="-47053164#0" type="veh_passenger"/>
    <trip id="veh24" depart="50.55" departLane="best" departSpeed="max" from="-47053170#4" to="-231248927#3" type="veh_passenger"/>
    <trip id="veh25" depart="52.65" departLane="best" departSpeed="max" from="-345894658" to="553314163#1" type="veh_passenger"/>
    <trip id="veh26" depart="54.76" departLane="best" departSpeed="max" from="137075740" to="231248927#4" type="veh_passenger"/>
    <trip id="veh27" depart="56.87" departLane="best" from="-28219926#1" to="330002929" type="veh_passenger"/>
    <trip id="veh28" depart="58.97" departLane="best" from="-28219909#2" to="-47053170#1" type="veh_passenger"/>
    <trip id="veh29" depart="61.08" departLane="best" from="96041313#5" to="28219904#2" type="veh_passenger"/>
    <trip id="veh30" depart="63.19" departLane="best" departSpeed="max" from="128198790" to="28219969#4" type="veh_passenger"/>
    <trip id="veh31" depart="65.29" departLane="best" from="368207414" to="352338175#0" type="veh_passenger"/>
    <trip id="veh32" depart="67.40" departLane="best" departSpeed="max" from="-307590944#1" to="-128005779" type="veh_passenger"/>
    <trip id="veh34" depart="71.61" departLane="best" from="-290584085" to="554653918" type="veh_passenger"/>
    <trip id="veh35" depart="73.72" departLane="best" departSpeed="max" from="158849647" to="-51178680#0" type="veh_passenger"/>
    <trip id="veh36" depart="75.82" departLane="best" from="51178694" to="104050378" type="veh_passenger"/>
    <trip id="veh37" depart="77.93" departLane="best" from="-334172554#0" to="-28219926#7" type="veh_passenger"/>
    <trip id="veh38" depart="80.04" departLane="best" departSpeed="max" from="134990864#0" to="-28219969#1" type="veh_passenger"/>
    <trip id="veh39" depart="82.14" departLane="best" departSpeed="max" from="135390930" to="512138122#0" type="veh_passenger"/>
    <trip id="veh40" depart="84.25" departLane="best" from="-51179901#0" to="-275134824#0" type="veh_passenger"/>
    <trip id="veh41" depart="86.35" departLane="best" from="97556753#0" to="128196502#1" type="veh_passenger"/>
    <trip id="veh42" depart="88.46" departLane="best" departSpeed="max" from="-136795449#1" to="-128196092" type="veh_passenger"/>
    <trip id="veh43" depart="90.57" departLane="best" from="-187006314#0" to="275134823#1" type="veh_passenger"/>
    <trip id="veh45" depart="94.78" departLane="best" from="97556749" to="134991080#1" type="veh_passenger"/>
    <trip id="veh46" depart="96.88" departLane="best" from="581164403#4" to="47053170#4" type="veh_passenger"/>
    <trip id="veh47" depart="98.99" departLane="best" from="-113741469#0" to="307590944#1" type="veh_passenger"/>
    <trip id="veh49" depart="103.20" departLane="best" departSpeed="max" from="-345894658" to="28219904#2" type="veh_passenger"/>
    <trip id="veh50" depart="105.31" departLane="best" from="-187006319" to="-580394362#0" type="veh_passenger"/>
    <trip id="veh51" depart="107.42" departLane="best" departSpeed="max" from="-618306056" to="581164403#0" type="veh_passenger"/>
    <trip id="veh52" depart="109.52" departLane="best" from="46731897#1" to="-28219969#2" type="veh_passenger"/>
    <trip id="veh53" depart="111.63" departLane="best" from="113741475#1" to="-169375094#0" type="veh_passenger"/>
    <trip id="veh54" depart="113.73" departLane="best" from="51178681#1" to="47053173#1" type="veh_passenger"/>
    <trip id="veh55" depart="115.84" departLane="best" departSpeed="max" from="-357432942" to="28219904#2" type="veh_passenger"/>
    <trip id="veh58" depart="122.16" departLane="best" from="28710029" to="135153345" type="veh_passenger"/>
    <trip id="veh59" depart="124.27" departLane="best" from="-104050378" to="-368207404#0" type="veh_passenger"/>
    <trip id="veh60" depart="126.37" departLane="best" from="-113741475#2" to="531779315#0" type="veh_passenger"/>
    <trip id="veh61" depart="128.48" departLane="best" from="47053162#2" to="46731893#5" type="veh_passenger"/>
    <trip id="veh62" depart="130.58" departLane="best" from="-368207404#0" to="-128196502#0" type="veh_passenger"/>
    <trip id="veh63" depart="132.69" departLane="best" from="47053162#1" to="554653931" type="veh_passenger"/>
    <trip id="veh65" depart="136.90" departLane="best" from="-135338114" to="345894658" type="veh_passenger"/>
    <trip id="veh67" depart="141.11" departLane="best" departSpeed="max" from="-97556753#2" to="136200004" type="veh_passenger"/>
    <trip id="veh68" depart="143.22" departLane="best" from="-334172554#0" to="47053174#1" type="veh_passenger"/>
    <trip id="veh69" depart="145.33" departLane="best" departSpeed="max" from="-52675839#1" to="-233384993" type="veh_passenger"/>
    <trip id="veh70" depart="147.43" departLane="best" from="128196502#2" to="330002929" type="veh_passenger"/>
    <trip id="veh71" depart="149.54" departLane="best" from="-28219971#1" to="-366892709#0" type="veh_passenger"/>
    <trip id="veh72" depart="151.65" departLane="best" from="97556746" to="28219926#0" type="veh_passenger"/>
    <trip id="veh73" depart="153.75" departLane="best" departSpeed="max" from="-554653931" to="128197182#1" type="veh_passenger"/>
    <trip id="veh74" depart="155.86" departLane="best" departSpeed="max" from="-227773681#1" to="-28219903#3" type="veh_passenger"/>
    <trip id="veh75" depart="157.96" departLane="best" from="-46731893#3" to="221586756#2" type="veh_passenger"/>
    <trip id="veh76" depart="160.07" departLane="best" departSpeed="max" from="-307590944#1" to="-275134824#1" type="veh_passenger"/>
    <trip id="veh77" depart="162.18" departLane="best" from="-135626088#1" to="275134824#1" type="veh_passenger"/>
    <trip id="veh78" depart="164.28" departLane="best" departSpeed="max" from="-307590944#1" to="519952415" type="veh_passenger"/>
    <trip id="veh79" depart="166.39" departLane="best" from="46731889#3" to="-128197185#1" type="veh_passenger"/>
    <trip id="veh80" depart="168.50" departLane="best" departSpeed="max" from="-311069246" to="28219935#2" type="veh_passenger"/>
    <trip id="veh81" depart="170.60" departLane="best" departSpeed="max" from="-296686575#1" to="-135723481" type="veh_passenger"/>
    <trip id="veh82" depart="172.71" departLane="best" from="529785872" to="169375105" type="veh_passenger"/>
    <trip id="veh83" depart="174.81" departLane="best" from="-97556753#0" to="357432936" type="veh_passenger"/>
    <trip id="veh84" depart="176.92" departLane="best" from="334058300#3" to="-187006314#3" type="veh_passenger"/>
    <trip id="veh85" depart="179.03" departLane="best" from="-136795982#1" to="-567035687" type="veh_passenger"/>
    <trip id="veh86" depart="181.13" departLane="best" departSpeed="max" from="-52675839#1" to="104050400" type="veh_passenger"/>
    <trip id="veh87" depart="183.24" departLane="best" from="28219904#0" to="28219964#0" type="veh_passenger"/>
    <trip id="veh88" depart="185.34" departLane="best" from="96041310#1" to="-135338111#0" type="veh_passenger"/>
    <trip id="veh89" depart="187.45" departLane="best" departSpeed="max" from="-51179901#1" to="-422001144#0" type="veh_passenger"/>
    <trip id="veh90" depart="189.56" departLane="best" from="46731892#2" to="-28219926#8" type="veh_passenger"/>
    <trip id="veh91" depart="191.66" departLane="best" from="-28219966#0" to="-96041313#2" type="veh_passenger"/>
    <trip id="veh92" depart="193.77" departLane="best" from="-52675839#0" to="-296103900#0" type="veh_passenger"/>
    <trip id="veh94" depart="197.98" departLane="best" from="-563917574" to="47053170#4" type="veh_passenger"/>
    <trip id="veh95" depart="200.09" departLane="best" from="128197182#2" to="-128196095" type="veh_passenger"/>
    <trip id="veh96" depart="202.19" departLane="best" from="97723906#1" to="46731894#1" type="veh_passenger"/>
    <trip id="veh98" depart="206.41" departLane="best" from="113741469#0" to="-233486675#0" type="veh_passenger"/>
    <trip id="veh99" depart="208.51" departLane="best" departSpeed="max" from="-51179901#1" to="-128196502#1" type="veh_passenger"/>
    <trip id="veh100" depart="210.62" departLane="best" departSpeed="max" from="-47053173#1" to="96041313#4" type="veh_passenger"/>
    <trip id="veh101" depart="212.72" departLane="best" from="-334172554#0" to="353679965" type="veh_passenger"/>
    <trip id="veh102" depart="214.83" departLane="best" departSpeed="max" from="-618306056" to="-554657046#0" type="veh_passenger"/>
    <trip id="veh103" depart="216.94" departLane="best" from="563917574" to="97556753#2" type="veh_passenger"/>
    <trip id="veh104" depart="219.04" departLane="best" departSpeed="max" from="128198790" to="307590944#1" type="veh_passenger"/>
    <trip id="veh105" depart="221.15" departLane="best" from="-28219903#3" to="-334058300#3" type="veh_passenger"/>
    <trip id="veh106" depart="223.26" departLane="best" from="581164403#2" to="196369839" type="veh_passenger"/>
    <trip id="veh107" depart="225.36" departLane="best" departSpeed="max" from="128197180#0" to="334058300#3" type="veh_passenger"/>
    <trip id="veh108" depart="227.47" departLane="best" from="-133980478#0" to="221586754#1" type="veh_passenger"/>
    <trip id="veh109" depart="229.57" departLane="best" from="-28219904#1" to="581164403#5" type="veh_passenger"/>
    <trip id="veh111" depart="233.79" departLane="best" departSpeed="max" from="135610475" to="28219966#0" type="veh_passenger"/>
    <trip id="veh112" depart="235.89" departLane="best" departSpeed="max" from="-307590944#1" to="-135644866#0" type="veh_passenger"/>
    <trip id="veh113" depart="238.00" departLane="best" from="47053168#1" to="-28219926#7" type="veh_passenger"/>
    <trip id="veh114" depart="240.11" departLane="best" departSpeed="max" from="135610475" to="231248930" type="veh_passenger"/>
    <trip id="veh115" depart="242.21" departLane="best" from="-520339356#1" to="221586754#1" type="veh_passenger"/>
    <trip id="veh117" depart="246.42" departLane="best" from="-28710275#0" to="307590944#1" type="veh_passenger"/>
    <trip id="veh118" depart="248.53" departLane="best" departSpeed="max" from="-311069246" to="-51178680#1" type="veh_passenger"/>
    <trip id="veh119" depart="250.64" departLane="best" from="169375101#1" to="-334058300#5" type="veh_passenger"/>
    <trip id="veh122" depart="256.95" departLane="best" from="97556753#1" to="97556753#2" type="veh_passenger"/>
    <trip id="veh124" depart="261.17" departLane="best" from="-334172554#0" to="551501626" type="veh_passenger"/>
    <trip id="veh125" depart="263.27" departLane="best" from="47053164#2" to="486152949" type="veh_passenger"/>
    <trip id="veh126" depart="265.38" departLane="best" departSpeed="max" from="-47053170#4" to="-136795980#0" type="veh_passenger"/>
    <trip id="veh127" depart="267.49" departLane="best" departSpeed="max" from="368207404#0" to="296686575#1" type="veh_passenger"/>
    <trip id="veh128" depart="269.59" departLane="best" departSpeed="max" from="135723481" to="96041318#0" type="veh_passenger"/>
    <trip id="veh129" depart="271.70" departLane="best" departSpeed="max" from="158849647" to="-113741470" type="veh_passenger"/>
    <trip id="veh130" depart="273.80" departLane="best" departSpeed="max" from="35028036" to="-334058300#5" type="veh_passenger"/>
    <trip id="veh131" depart="275.91" departLane="best" departSpeed="max" from="169375094#0" to="554653915#2" type="veh_passenger"/>
    <trip id="veh132" depart="278.02" departLane="best" departSpeed="max" from="-231248927#4" to="-135610475" type="veh_passenger"/>
    <trip id="veh133" depart="280.12" departLane="best" from="-169375101#0" to="136795449#1" type="veh_passenger"/>
    <trip id="veh135" depart="284.34" departLane="best" from="24888061#1" to="-231248727#1" type="veh_passenger"/>
    <trip id="veh136" depart="286.44" departLane="best" departSpeed="max" from="136622148#0" to="-28219969#3" type="veh_passenger"/>
    <trip id="veh137" depart="288.55" departLane="best" departSpeed="max" from="113741470" to="519952415" type="veh_passenger"/>
    <trip id="veh139" depart="292.76" departLane="best" departSpeed="max" from="-52675839#1" to="-28710275#4" type="veh_passenger"/>
    <trip id="veh140" depart="294.87" departLane="best" departSpeed="max" from="-104050388" to="350836846#0" type="veh_passenger"/>
    <trip id="veh141" depart="296.97" departLane="best" departSpeed="max" from="136795225" to="-28219969#0" type="veh_passenger"/>
    <trip id="veh142" depart="299.08" departLane="best" from="28219926#1" to="136795449#0" type="veh_passenger"/>
    <trip id="veh143" depart="301.18" departLane="best" from="-551501626" to="-113741470" type="veh_passenger"/>
    <trip id="veh146" depart="307.50" departLane="best" departSpeed="max" from="368207404#0" to="221586754#0" type="veh_passenger"/>
    <trip id="veh148" depart="311.72" departLane="best" from="-368207404#0" to="512138122#1" type="veh_passenger"/>
    <trip id="veh149" depart="313.82" departLane="best" from="304251470" to="47053170#4" type="veh_passenger"/>
    <trip id="veh150" depart="315.93" departLane="best" from="47053174#0" to="-231248927#3" type="veh_passenger"/>
    <trip id="veh152" depart="320.14" departLane="best" from="28710275#0" to="51175929#2" type="veh_passenger"/>
    <trip id="veh153" depart="322.25" departLane="best" departSpeed="max" from="-519952415" to="233384994" type="veh_passenger"/>
    <trip id="veh154" depart="324.35" departLane="best" from="-28219903#3" to="531779315#1" type="veh_passenger"/>
    <trip id="veh155" depart="326.46" departLane="best" from="46731893#12" to="92017384#1" type="veh_passenger"/>
    <trip id="veh156" depart="328.57" departLane="best" from="334058300#5" to="493599813" type="veh_passenger"/>
    <trip id="veh157" depart="330.67" departLane="best" from="-128005927" to="330002933" type="veh_passenger"/>
    <trip id="veh158" depart="332.78" departLane="best" from="-46731892#0" to="531779315#1" type="veh_passenger"/>
    <trip id="veh159" depart="334.88" departLane="best" from="319987722" to="47053170#4" type="veh_passenger"/>
    <trip id="veh160" depart="336.99" departLane="best" from="334058300#5" to="-28219970#1" type="veh_passenger"/>
    <trip id="veh161" depart="339.10" departLane="best" from="289564474" to="-135607184" type="veh_passenger"/>
    <trip id="veh162" depart="341.20" departLane="best" from="46731895" to="47053169#1" type="veh_passenger"/>
    <trip id="veh165" depart="347.52" departLane="best" from="-128003519#1" to="-187006325#2" type="veh_passenger"/>
    <trip id="veh166" depart="349.63" departLane="best" departSpeed="max" from="-46731891#1" to="47053171#0" type="veh_passenger"/>
    <trip id="veh167" depart="351.73" departLane="best" from="581164403#1" to="-296103900#0" type="veh_passenger"/>
    <trip id="veh168" depart="353.84" departLane="best" from="136795449#0" to="-51179901#0" type="veh_passenger"/>
    <trip id="veh169" depart="355.95" departLane="best" departSpeed="max" from="96041310#0" to="135644866#1" type="veh_passenger"/>
    <trip id="veh170" depart="358.05" departLane="best" from="531779312#1" to="-135610475" type="veh_passenger"/>
    <trip id="veh171" depart="360.16" departLane="best" from="581164403#4" to="-169375094#0" type="veh_passenger"/>
    <trip id="veh172" depart="362.26" departLane="best" departSpeed="max" from="580394362#0" to="-28219970#0" type="veh_passenger"/>
    <trip id="veh173" depart="364.37" departLane="best" from="-169375104" to="-580394362#0" type="veh_passenger"/>
    <trip id="veh174" depart="366.48" departLane="best" from="28219903#4" to="-366892710" type="veh_passenger"/>
    <trip id="veh175" depart="368.58" departLane="best" departSpeed="max" from="135645209" to="128196503" type="veh_passenger"/>
    <trip id="veh176" depart="370.69" departLane="best" departSpeed="max" from="-486152949" to="187006325#3" type="veh_passenger"/>
    <trip id="veh177" depart="372.80" departLane="best" from="-334058300#1" to="304251470" type="veh_passenger"/>
    <trip id="veh178" depart="374.90" departLane="best" departSpeed="max" from="-104050388" to="531779310#0" type="veh_passenger"/>
    <trip id="veh179" depart="377.01" departLane="best" from="128196502#1" to="307590944#1" type="veh_passenger"/>
    <trip id="veh180" depart="379.11" departLane="best" from="28219926#2" to="28219938#1" type="veh_passenger"/>
    <trip id="veh181" depart="381.22" departLane="best" from="-47053168#4" to="-128197185#0" type="veh_passenger"/>
    <trip id="veh184" depart="387.54" departLane="best" from="275134823#0" to="-334058300#5" type="veh_passenger"/>
    <trip id="veh185" depart="389.64" departLane="best" from="-368207404#1" to="-519954290#1" type="veh_passenger"/>
    <trip id="veh186" depart="391.75" departLane="best" departSpeed="max" from="-51179901#1" to="-334058300#2" type="veh_passenger"/>
    <trip id="veh187" depart="393.86" departLane="best" from="-231248727#1" to="-554653915#0" type="veh_passenger"/>
    <trip id="veh188" depart="395.96" departLane="best" from="531779315#0" to="28219966#3" type="veh_passenger"/>
    <trip id="veh189" depart="398.07" departLane="best" from="47053176#3" to="231248929#0" type="veh_passenger"/>
    <trip id="veh191" depart="402.28" departLane="best" from="-104050378" to="-307590939" type="veh_passenger"/>
    <trip id="veh192" depart="404.39" departLane="best" from="-553314163#0" to="196369840" type="veh_passenger"/>
    <trip id="veh193" depart="406.49" departLane="best" departSpeed="max" from="158849647" to="104050389#1" type="veh_passenger"/>
    <trip id="veh194" depart="408.60" departLane="best" from="-554657046#1" to="-233486675#0" type="veh_passenger"/>
    <trip id="veh195" depart="410.71" departLane="best" from="-97556753#0" to="512138123#1" type="veh_passenger"/>
    <trip id="veh198" depart="417.03" departLane="best" departSpeed="max" from="136622148#0" to="-393483749#1" type="veh_passenger"/>
    <trip id="veh199" depart="419.13" departLane="best" departSpeed="max" from="35028036" to="334058300#5" type="veh_passenger"/>
    <trip id="veh200" depart="421.24" departLane="best" from="169375104" to="-28219903#1" type="veh_passenger"/>
    <trip id="veh201" depart="423.34" departLane="best" from="-28219970#0" to="-128003519#0" type="veh_passenger"/>
    <trip id="veh202" depart="425.45" departLane="best" departSpeed="max" from="-330002933" to="113741472#1" type="veh_passenger"/>
    <trip id="veh204" depart="429.66" departLane="best" departSpeed="max" from="-520318532" to="275134824#1" type="veh_passenger"/>
    <trip id="veh205" depart="431.77" departLane="best" from="-28219967" to="28710275#3" type="veh_passenger"/>
    <trip id="veh206" depart="433.87" departLane="best" from="169375092#0" to="-113741469#2" type="veh_passenger"/>
    <trip id="veh207" depart="435.98" departLane="best" from="28219926#8" to="35028158" type="veh_passenger"/>
    <trip id="veh208" depart="438.09" departLane="best" from="-169375101#0" to="-554657066" type="veh_passenger"/>
    <trip id="veh209" depart="440.19" departLane="best" from="-28219926#4" to="581164403#3" type="veh_passenger"/>
    <trip id="veh210" depart="442.30" departLane="best" from="128196088#0" to="-128196095" type="veh_passenger"/>
    <trip id="veh212" depart="446.51" departLane="best" from="-72667894#1" to="368207404#1" type="veh_passenger"/>
    <trip id="veh213" depart="448.62" departLane="best" departSpeed="max" from="135610475" to="563917574" type="veh_passenger"/>
    <trip id="veh214" depart="450.72" departLane="best" from="47053168#4" to="231248927#4" type="veh_passenger"/>
    <trip id="veh215" depart="452.83" departLane="best" from="275134823#0" to="128196500#1" type="veh_passenger"/>
    <trip id="veh217" depart="457.04" departLane="best" from="47053171#2" to="334058300#0" type="veh_passenger"/>
    <trip id="veh218" depart="459.15" departLane="best" departSpeed="max" from="-97556753#2" to="-28219966#3" type="veh_passenger"/>
    <trip id="veh219" depart="461.26" departLane="best" departSpeed="max" from="-330002933" to="28219904#1" type="veh_passenger"/>
    <trip id="veh220" depart="463.36" departLane="best" from="28219966#3" to="128198788" type="veh_passenger"/>
    <trip id="veh221" depart="465.47" departLane="best" departSpeed="max" from="136622132" to="-28710275#3" type="veh_passenger"/>
    <trip id="veh224" depart="471.79" departLane="best" from="128196503" to="-136200004" type="veh_passenger"/>
    <trip id="veh225" depart="473.89" departLane="best" departSpeed="max" from="-307590944#1" to="28710275#1" type="veh_passenger"/>
    <trip id="veh226" depart="476.00" departLane="best" from="231248927#4" to="-128197180#0" type="veh_passenger"/>
    <trip id="veh228" depart="480.21" departLane="best" departSpeed="max" from="-520318532" to="-231248927#1" type="veh_passenger"/>
    <trip id="veh229" depart="482.32" departLane="best" from="-520339356#2" to="519952415" type="veh_passenger"/>
    <trip id="veh230" depart="484.42" departLane="best" from="422001146" to="347473951" type="veh_passenger"/>
    <trip id="veh231" depart="486.53" departLane="best" from="-47053174#1" to="-113741469#2" type="veh_passenger"/>
    <trip id="veh232" depart="488.64" departLane="best" from="-47053163" to="334059476" type="veh_passenger"/>
    <trip id="veh233" depart="490.74" departLane="best" departSpeed="max" from="422001144#0" to="581164403#0" type="veh_passenger"/>
    <trip id="veh234" depart="492.85" departLane="best" from="-520339356#1" to="334058300#3" type="veh_passenger"/>
    <trip id="veh235" depart="494.95" departLane="best" from="128197181#0" to="231248927#1" type="veh_passenger"/>
    <trip id="veh237" depart="499.17" departLane="best" departSpeed="max" from="-554653915#2" to="-128005779" type="veh_passenger"/>
    <trip id="veh238" depart="501.27" departLane="best" from="-46731893#1" to="28219966#5" type="veh_passenger"/>
    <trip id="veh239" depart="503.38" departLane="best" from="-518823482" to="-137075740" type="veh_passenger"/>
    <trip id="veh241" depart="507.59" departLane="best" departSpeed="max" from="136202554" to="-128003519#0" type="veh_passenger"/>
    <trip id="veh242" depart="509.70" departLane="best" from="-51178648" to="169375096#0" type="veh_passenger"/>
    <trip id="veh243" depart="511.80" departLane="best" from="-128006552" to="28219909#1" type="veh_passenger"/>
    <trip id="veh244" depart="513.91" departLane="best" departSpeed="max" from="-231248927#4" to="104050388" type="veh_passenger"/>
    <trip id="veh245" depart="516.02" departLane="best" from="-128197181#1" to="-47053170#1" type="veh_passenger"/>
    <trip id="veh247" depart="520.23" departLane="best" from="28219960#1" to="-47053170#1" type="veh_passenger"/>
    <trip id="veh248" depart="522.33" departLane="best" from="28219930#0" to="46731893#5" type="veh_passenger"/>
    <trip id="veh249" depart="524.44" departLane="best" from="-334058300#0" to="-134990864#0" type="veh_passenger"/>
    <trip id="veh251" depart="528.65" departLane="best" from="97723906#1" to="-46731893#3" type="veh_passenger"/>
    <trip id="veh252" depart="530.76" departLane="best" departSpeed="max" from="137075740" to="353679965" type="veh_passenger"/>
    <trip id="veh253" depart="532.87" departLane="best" from="137075758" to="334059476" type="veh_passenger"/>
    <trip id="veh254" depart="534.97" departLane="best" from="554653915#0" to="-196748364" type="veh_passenger"/>
    <trip id="veh255" depart="537.08" departLane="best" from="-113741476#0" to="-136622148#0" type="veh_passenger"/>
    <trip id="veh256" depart="539.18" departLane="best" from="-231248727#0" to="28219935#2" type="veh_passenger"/>
    <trip id="veh257" depart="541.29" departLane="best" from="134990864#1" to="-275134824#0" type="veh_passenger"/>
    <trip id="veh258" depart="543.40" departLane="best" from="231248927#0" to="347473951" type="veh_passenger"/>
    <trip id="veh259" depart="545.50" departLane="best" from="-28219909#8" to="231248927#4" type="veh_passenger"/>
    <trip id="veh260" depart="547.61" departLane="best" from="28219926#6" to="-135610475" type="veh_passenger"/>
    <trip id="veh261" depart="549.71" departLane="best" from="-169375104" to="-128003519#0" type="veh_passenger"/>
    <trip id="veh263" depart="553.93" departLane="best" from="563917575" to="-51178681#0" type="veh_passenger"/>
    <trip id="veh264" depart="556.03" departLane="best" from="233486675#2" to="-128198790" type="veh_passenger"/>
    <trip id="veh265" depart="558.14" departLane="best" from="221586756#2" to="275134823#0" type="veh_passenger"/>
    <trip id="veh266" depart="560.25" departLane="best" from="-169375094#1" to="350836847#0" type="veh_passenger"/>
    <trip id="veh268" depart="564.46" departLane="best" departSpeed="max" from="-227773681#1" to="96041313#1" type="veh_passenger"/>
    <trip id="veh269" depart="566.56" departLane="best" from="28710275#2" to="-46731893#0" type="veh_passenger"/>
    <trip id="veh270" depart="568.67" departLane="best" from="-551501626" to="-47053167#1" type="veh_passenger"/>
    <trip id="veh271" depart="570.78" departLane="best" from="128003519#1" to="-46731889#0" type="veh_passenger"/>
    <trip id="veh273" depart="574.99" departLane="best" from="-169375099" to="581164403#5" type="veh_passenger"/>
    <trip id="veh274" depart="577.10" departLane="best" departSpeed="max" from="136622148#0" to="46731893#10" type="veh_passenger"/>
    <trip id="veh275" depart="579.20" departLane="best" from="231248929#0" to="-580394362#0" type="veh_passenger"/>
    <trip id="veh276" depart="581.31" departLane="best" from="28219909#4" to="618306055#1" type="veh_passenger"/>
    <trip id="veh278" depart="585.52" departLane="best" from="128196502#1" to="113741477#2" type="veh_passenger"/>
    <trip id="veh279" depart="587.63" departLane="best" departSpeed="max" from="-554653915#2" to="330002931" type="veh_passenger"/>
    <trip id="veh280" depart="589.73" departLane="best" departSpeed="max" from="-345894658" to="47053167#2" type="veh_passenger"/>
    <trip id="veh281" depart="591.84" departLane="best" from="366892712" to="-134990877" type="veh_passenger"/>
    <trip id="veh282" depart="593.94" departLane="best" from="47053164#3" to="-28219926#5" type="veh_passenger"/>
    <trip id="veh283" depart="596.05" departLane="best" from="-96041313#0" to="231248927#4" type="veh_passenger"/>
    <trip id="veh284" depart="598.16" departLane="best" departSpeed="max" from="-47053173#1" to="-128005779" type="veh_passenger"/>
    <trip id="veh285" depart="600.26" departLane="best" from="393483749#0" to="-169375094#1" type="veh_passenger"/>
    <trip id="veh286" depart="602.37" departLane="best" from="-296103900#0" to="366892714" type="veh_passenger"/>
    <trip id="veh287" depart="604.48" departLane="best" from="-46731893#6" to="486152949" type="veh_passenger"/>
    <trip id="veh288" depart="606.58" departLane="best" from="231248927#1" to="-28710275#4" type="veh_passenger"/>
    <trip id="veh289" depart="608.69" departLane="best" departSpeed="max" from="-113741468" to="554657046#1" type="veh_passenger"/>
    <trip id="veh291" depart="612.90" departLane="best" departSpeed="max" from="113741470" to="345894658" type="veh_passenger"/>
    <trip id="veh292" depart="615.01" departLane="best" from="221586756#2" to="28219909#5" type="veh_passenger"/>