<?xml version="1.0" encoding="UTF-8"?>

<!-- generated on 03/19/19 15:15:04 by Eclipse SUMO duarouter Version 1.1.0
<configuration xmlns:xsi="http://www.w3.org/2001/XMLSchema-instance" xsi:noNamespaceSchemaLocation="http://sumo.dlr.de/xsd/duarouterConfiguration.xsd">

    <input>
        <net-file value="C:\Program%20Files%20(x86)\Eclipse\Sumo\tools\2019-03-19-15-14-57\osm.net.xml"/>
        <route-files value="C:\Program%20Files%20(x86)\Eclipse\Sumo\tools\2019-03-19-15-14-57\osm.passenger.trips.xml"/>
    </input>

    <output>
        <output-file value="C:\Program%20Files%20(x86)\Eclipse\Sumo\tools\2019-03-19-15-14-57\osm.passenger.rou.xml"/>
        <alternatives-output value="C:\Program%20Files%20(x86)\Eclipse\Sumo\tools\2019-03-19-15-14-57\osm.passenger.rou.alt.xml"/>
    </output>

    <time>
        <begin value="0"/>
        <end value="3600.0"/>
    </time>

    <report>
        <no-warnings value="true"/>
        <ignore-errors value="true"/>
        <no-step-log value="true"/>
    </report>

</configuration>
-->

<routes xmlns:xsi="http://www.w3.org/2001/XMLSchema-instance" xsi:noNamespaceSchemaLocation="http://sumo.dlr.de/xsd/routes_file.xsd">
    <vType id="veh_passenger" vClass="passenger"/>
    <vehicle id="veh0" type="veh_passenger" depart="0.00" departLane="best" departSpeed="max">
        <route edges="136795225 136622148#1 -28219970#0 28219964#0 28219964#1 227773684#0 227773684#1 227773684#2 227773684#3 28219968 -227773685 -97556749 -28219969#4 -28219969#3 35028158 -393483749#1 -393483749#0 -128003519#1 -128003519#0"/>
    </vehicle>
    <vehicle id="veh1" type="veh_passenger" depart="2.11" departLane="best" departSpeed="max">
        <route edges="-347473951 -47053171#2 -47053171#0 46731893#4 46731893#5 46731893#6 46731893#7 46731893#8 46731893#9 46731893#10 46731893#12 -28219966#1 -28219966#0 24888058 169375092#0 169375092#1 24888061#0 24888061#1 104050381 104050395#1 169375096#0 169375096#1 169375096#2 275134824#0 275134824#1 275134824#2 275134824#3 512138123#0 512138123#1 221586756#2 221586756#3 581164403#0 581164403#1 581164403#2 581164403#3 581164403#4 581164403#5 221586756#0 531779316 531779315#0 531779315#1 -275134824#3"/>
    </vehicle>
    <vehicle id="veh2" type="veh_passenger" depart="4.21" departLane="best">
        <route edges="28219909#7 28219909#8 28219909#9 28219926#1 28219926#2 28219926#3 28219926#4 28219926#5 28219926#6 28219926#7 28219926#8 51177554#0 350836847#0 350836847#1 350836847#2 350836847#3 28220051 169375092#0 28220054 104050398 28219966#1 28219966#2"/>
    </vehicle>
    <vehicle id="veh3" type="veh_passenger" depart="6.32" departLane="best">
        <route edges="47053168#5 -47053168#5 -47053168#4 -47053168#3 -47053168#1 -47053168#0 46731889#1 46731889#2 46731889#3 -47053169#0 187006319 -134990864#3 134990877 -134990877"/>
    </vehicle>
    <vehicle id="veh4" type="veh_passenger" depart="8.42" departLane="best">
        <route edges="-52675839#0 -133980478#1 -97556753#0 -334058300#5 -334058300#4 -334058300#3 128005927 28710029 51178694 334172554#1 51178681#1 51178681#2 51178680#0 51178680#1 366892707 96041318#0 96041318#1 -24888061#1 -24888061#0 -169375092#1 -169375092#0 -28220051 -28219938#3 -28219938#2 -28219938#1 -28219938#0 -187006319 -187006325#3 -187006325#2 -187006325#0 -187006314#3 -187006314#0 -128005779"/>
    </vehicle>
    <vehicle id="veh6" type="veh_passenger" depart="12.64" departLane="best">
        <route edges="-128006550 128006550 196369840 512906526#1 28219934#0 28219934#1 28219934#2 72675583#1 72675583#2 28219970#0 28219970#1 47053162#0 47053162#1 47053162#2 97556752 196748364 -196748364"/>
    </vehicle>
    <vehicle id="veh9" type="veh_passenger" depart="18.96" departLane="best">
        <route edges="334058300#4 -334058300#4 -334058300#3 -334058300#2 -334058300#1 -334058300#0 -563917574 -563917575 -551501626 -169375104 -128196263 221586754#0 221586754#1 221586756#0 531779316 531779315#0 531779315#1 -275134824#3 -275134824#2 -275134824#1 -275134824#0 -28710275#4 -28710275#3 -28710275#2 -28710275#1 -28710275#0 51177554#0 -47053167#3 -47053167#2 -113741469#2 -113741469#1 -113741470"/>
    </vehicle>
    <vehicle id="veh10" type="veh_passenger" depart="21.06" departLane="best">
        <route edges="334058300#1 -334058300#1 -334058300#0 -563917574 -563917575 -551501626 -169375104 -128196263 221586754#0 221586754#1 221586756#0 531779316 531779315#0 531779315#1 -275134824#3 -275134824#2 -275134824#1 -275134824#0 -28710275#4 28710275#4"/>
    </vehicle>
    <vehicle id="veh11" type="veh_passenger" depart="23.17" departLane="best">
        <route edges="-46731893#6 46731893#6 46731893#7 46731893#8 46731893#9 46731893#10 46731893#12 28219966#2 28219966#3 92017384#1 366892710 -366892712 72675583#1 72675583#2 28219970#0 -136622148#1 -136795225"/>
    </vehicle>
    <vehicle id="veh12" type="veh_passenger" depart="25.27" departLane="best">
        <route edges="563917574 -563917574 -563917575 -551501626 -169375104 -128196263 221586754#0 221586754#1 221586756#0 531779316 531779315#0 531779315#1 -275134824#3 -275134824#2 -275134824#1 -275134824#0 -169375096#2 -169375096#1 -169375096#0 -104050395#1 -46731894#1 350836847#2 46731889#0 46731889#1 46731889#2 46731889#3 -47053169#0 -187006325#3 -187006325#2 -187006325#0 -187006314#3 422001146 -422001144#0"/>
    </vehicle>
    <vehicle id="veh13" type="veh_passenger" depart="27.38" departLane="best" departSpeed="max">
        <route edges="-136795449#1 -136795449#0 -51175929#1 -51175929#0 -28219970#1 -28219970#0 28219964#0 28219964#1 227773684#0 227773684#1 227773684#2 227773684#3 28219968 -28219966#5 -28219966#4 -28219966#3 -28219966#2 -28219966#1 -28219966#0 24888058 -28220051 -350836847#3 -350836847#2 -350836847#1 -350836847#0 -51177554#0 -28219926#8 -28219926#7 -28219926#6 -28219926#5 -28219926#4 -28219926#3 -28219926#2 -28219926#1 -28219909#9 -28219909#8 -135338114 -135338111#0"/>
    </vehicle>
    <vehicle id="veh15" type="veh_passenger" depart="31.59" departLane="best">
        <route edges="334058300#2 128005927 28710029 51178694 334172554#1 51178681#1 51178681#2 51178680#0 51178680#1 366892707 96041318#0 96041318#1 -24888061#1 -24888061#0 -169375092#1 28220054 104050398 28219966#1 -46731893#12 -46731893#10 -46731893#9 -46731893#8 -46731893#7 47053170#0 47053170#2 47053174#0 330002929"/>
    </vehicle>
    <vehicle id="veh16" type="veh_passenger" depart="33.70" departLane="best">
        <route edges="128196500#0 -553313621#0 128198788 553314163#0 553314163#1 531779312#0 531779312#1 581164403#0 581164403#1 581164403#2 581164403#3 581164403#4 581164403#5 221586756#0 531779316 531779315#0 531779315#1 -275134824#3 -275134824#2 -275134824#1 -275134824#0 -169375096#2 -169375096#1 -169375096#0 -104050395#1 24888063#1 -366892707 -352338175#1 -352338175#0 527439211 -28219967 -97556744 28219935#0 28219935#1 28219935#2 196369840 512906526#1 35028034 -28219903#4 -28219903#3 72675518#0"/>
    </vehicle>
    <vehicle id="veh17" type="veh_passenger" depart="35.81" departLane="best" departSpeed="max">
        <route edges="-47053173#1 -47053173#0 -28219971#0 -28219903#4 -28219903#3 -28219903#1 51175929#1 136795449#0"/>
    </vehicle>
    <vehicle id="veh18" type="veh_passenger" depart="37.91" departLane="best">
        <route edges="366892709#1 169375104 551501626 231248930 231248929#1"/>
    </vehicle>
    <vehicle id="veh19" type="veh_passenger" depart="40.02" departLane="best">
        <route edges="46731892#2 -113741474#1 -113741474#0 -169375096#1 -169375096#0 -104050395#1 -46731894#1 350836847#2 46731889#0 46731889#1 46731889#2 46731889#3 -47053169#0 -187006325#3 -187006325#2 -187006371 187006371"/>
    </vehicle>
    <vehicle id="veh20" type="veh_passenger" depart="42.12" departLane="best">
        <route edges="231248927#3 -231248927#3 -231248927#2 -231248927#1 -231248927#0 563917574 334058300#0 334058300#1 334058300#2 334058300#3 334058300#4 334058300#5 -296103900#1 -296103900#0 -47053164#4 -128196092"/>
    </vehicle>
    <vehicle id="veh22" type="veh_passenger" depart="46.34" departLane="best">
        <route edges="-169375094#0 169375094#0 169375094#1 304251470 366892709#0 366892709#1 169375104 551501626 563917575 563917574 334058300#0 334058300#1 334058300#2 334058300#3 334058300#4 334058300#5 97556753#0 97556753#1 290584085 -290584085"/>
    </vehicle>
    <vehicle id="veh23" type="veh_passenger" depart="48.44" departLane="best" departSpeed="max">
        <route edges="136622148#0 136622148#1 28219970#1 51175929#0 51175929#1 51175929#2 233486675#1 233486675#2 47053164#0 -47053164#0"/>
    </vehicle>
    <vehicle id="veh24" type="veh_passenger" depart="50.55" departLane="best" departSpeed="max">
        <route edges="-47053170#4 -47053170#2 -47053170#1 46731893#7 46731893#8 46731893#9 46731893#10 46731893#12 -28219966#1 -28219966#0 24888058 169375092#0 169375092#1 24888061#0 24888061#1 104050381 104050395#1 169375096#0 169375096#1 169375096#2 275134824#0 275134824#1 275134824#2 275134824#3 512138123#0 512138123#1 221586756#2 221586756#3 581164403#0 581164403#1 581164403#2 581164403#3 581164403#4 512138122#0 512138122#1 128196262 169375104 551501626 563917575 231248927#0 231248927#1 231248927#2 231248927#3 -231248927#3"/>
    </vehicle>
    <vehicle id="veh25" type="veh_passenger" depart="52.65" departLane="best" departSpeed="max">
        <route edges="-345894658 -196748364 -97556752 -47053162#2 -47053162#1 -47053162#0 -28219970#1 -28219970#0 28219964#0 28219964#1 227773684#0 227773684#1 227773684#2 227773684#3 28219968 -28219966#5 -28219966#4 -28219966#3 -28219966#2 -28219966#1 -28219966#0 24888058 169375092#0 169375092#1 24888061#0 24888061#1 104050381 104050395#1 169375096#0 169375096#1 169375096#2 275134824#0 275134824#1 275134824#2 275134824#3 512138123#0 512138123#1 221586756#2 531779310#0 531779310#1 -553314163#1 553314163#1"/>
    </vehicle>
    <vehicle id="veh26" type="veh_passenger" depart="54.76" departLane="best" departSpeed="max">
        <route edges="137075740 -128196088#1 -128196088#0 -47053164#1 -47053164#0 47053176#1 46731897#0 46731897#1 319987722 -231248727#0 -334058300#5 -334058300#4 -334058300#3 -334058300#2 -334058300#1 -334058300#0 -563917574 231248927#0 231248927#1 231248927#2 231248927#3 231248927#4"/>
    </vehicle>
    <vehicle id="veh27" type="veh_passenger" depart="56.87" departLane="best">
        <route edges="-28219926#1 28219926#1 28219926#2 28219926#3 28219926#4 28219926#5 28219926#6 28219926#7 28219926#8 51177554#0 350836847#0 350836847#1 350836847#2 350836847#3 -28219938#3 47053172 -46731893#10 -46731893#9 -46731893#8 -46731893#7 47053170#0 47053170#2 47053174#0 330002929"/>
    </vehicle>
    <vehicle id="veh28" type="veh_passenger" depart="58.97" departLane="best">
        <route edges="-28219909#2 -28219909#1 -28219909#0 28219926#3 28219926#4 28219926#5 28219926#6 28219926#7 28219926#8 51177554#0 350836847#0 350836847#1 350836847#2 350836847#3 -28219938#3 47053172 -46731893#10 -46731893#9 -46731893#8 -46731893#7 47053170#0 -47053170#1"/>
    </vehicle>
    <vehicle id="veh29" type="veh_passenger" depart="61.08" departLane="best">
        <route edges="96041313#5 96041313#6 -47053168#1 46731894#0 46731894#1 24888063#1 -366892707 -51178680#1 -51178680#0 -51178681#2 -51178681#1 -51178681#0 -334172554#0 -28710029 -28219930#2 -28219930#1 28219904#2"/>
    </vehicle>
    <vehicle id="veh30" type="veh_passenger" depart="63.19" departLane="best" departSpeed="max">
        <route edges="128198790 -47053171#2 -47053171#0 46731893#4 46731893#5 46731893#6 46731893#7 46731893#8 46731893#9 46731893#10 46731893#12 28219966#2 28219966#3 28219966#4 28219966#5 -227773685 -97556749 -28219969#4 28219969#4"/>
    </vehicle>
    <vehicle id="veh31" type="veh_passenger" depart="65.29" departLane="best">
        <route edges="368207414 -169375099 -231248727#1 -231248727#0 -334058300#5 -334058300#4 -334058300#3 128005927 28710029 51178694 334172554#1 51178681#1 51178681#2 51178680#0 51178680#1 -352338175#1 -352338175#0 352338175#0"/>
    </vehicle>
    <vehicle id="veh32" type="veh_passenger" depart="67.40" departLane="best" departSpeed="max">
        <route edges="-307590944#1 -307590944#0 -520339356#2 -520339356#1 -520339356#0 -169375099 -47053176#4 -47053176#3 -47053176#2 -47053176#1 -47053176#0 -233486675#1 -233486675#0 -51175929#1 -51175929#0 -28219970#1 -28219970#0 28219964#0 28219964#1 227773684#0 227773684#1 227773684#2 227773684#3 28219968 -28219966#5 -28219966#4 -28219966#3 -28219966#2 -46731893#12 -47053172 -28219938#2 -28219938#1 -28219938#0 -187006319 -187006325#3 -187006325#2 -187006325#0 -187006314#3 -187006314#0 -128005779"/>
    </vehicle>
    <vehicle id="veh34" type="veh_passenger" depart="71.61" departLane="best">
        <route edges="-290584085 -97556753#1 -97556753#0 -334058300#5 -334058300#4 -334058300#3 -334058300#2 -334058300#1 -334058300#0 -563917574 -563917575 -551501626 -169375104 -128196263 221586754#0 221586754#1 221586756#0 531779316 531779315#0 531779315#1 -275134824#3 -275134824#2 -275134824#1 -128196502#2 -128196502#1 554653915#0 554653915#1 554653918"/>
    </vehicle>
    <vehicle id="veh35" type="veh_passenger" depart="73.72" departLane="best" departSpeed="max">
        <route edges="158849647 368207414 -169375099 -231248727#1 -231248727#0 -334058300#5 -334058300#4 -334058300#3 128005927 28710029 51178694 334172554#1 51178681#1 51178681#2 51178680#0 -51178680#0"/>
    </vehicle>
    <vehicle id="veh36" type="veh_passenger" depart="75.82" departLane="best">
        <route edges="51178694 334172554#1 51178681#1 51178681#2 51178680#0 51178680#1 -352338175#1 -352338175#0 527439211 -28219967 -97556744 28219935#0 28219935#1 28219935#2 -128006550 -128006552 -104050378 104050378"/>
    </vehicle>
    <vehicle id="veh37" type="veh_passenger" depart="77.93" departLane="best">
        <route edges="-334172554#0 51178694 334172554#1 51178681#1 51178681#2 46731892#0 46731892#1 46731892#2 46731892#3 -275134823#1 -275134823#0 -28710275#4 -28710275#3 -28710275#2 -28710275#1 -28710275#0 -28219926#8 -28219926#7"/>
    </vehicle>
    <vehicle id="veh38" type="veh_passenger" depart="80.04" departLane="best" departSpeed="max">
        <route edges="134990864#0 134990864#1 -134990867 28219938#1 28219938#2 47053172 46731893#12 28219966#2 28219966#3 28219966#4 28219966#5 -227773685 -97556749 -28219969#4 -28219969#3 -28219969#2 -28219969#1"/>
    </vehicle>
    <vehicle id="veh39" type="veh_passenger" depart="82.14" departLane="best" departSpeed="max">
        <route edges="135390930 96041312#0 -113741473#1 -113741473#0 169375096#1 169375096#2 275134824#0 275134824#1 275134824#2 275134824#3 512138123#0 512138123#1 221586756#2 221586756#3 581164403#0 581164403#1 581164403#2 581164403#3 581164403#4 512138122#0"/>
    </vehicle>
    <vehicle id="veh40" type="veh_passenger" depart="84.25" departLane="best">
        <route edges="-51179901#0 -97723902 -97556746 -493599811 -51178648 -128005931 -113741477#2 -113741477#1 -113741477#0 -275134823#0 275134824#0 -275134824#0"/>
    </vehicle>
    <vehicle id="veh41" type="veh_passenger" depart="86.35" departLane="best">
        <route edges="97556753#0 -97556753#0 -334058300#5 -334058300#4 -334058300#3 -334058300#2 -334058300#1 -334058300#0 -563917574 -563917575 -551501626 -169375104 -128196263 221586754#0 221586754#1 221586756#0 531779316 531779315#0 531779315#1 -275134824#3 -275134824#2 -275134824#1 -128196502#2 -128196502#1 128196502#1"/>
    </vehicle>
    <vehicle id="veh42" type="veh_passenger" depart="88.46" departLane="best" departSpeed="max">
        <route edges="-136795449#1 -136795449#0 51175929#2 233486675#1 233486675#2 47053164#0 47053164#1 47053164#2 47053164#3 -128196092"/>
    </vehicle>
    <vehicle id="veh43" type="veh_passenger" depart="90.57" departLane="best">
        <route edges="-187006314#0 187006314#0 187006314#1 187006325#0 187006325#2 187006325#3 187006319 28219938#0 28219938#1 28219938#2 28219938#3 28220051 169375092#0 169375092#1 24888061#0 24888061#1 104050381 104050395#1 169375096#0 169375096#1 169375096#2 275134823#0 275134823#1"/>
    </vehicle>
    <vehicle id="veh45" type="veh_passenger" depart="94.78" departLane="best">
        <route edges="97556749 227773685 -28219966#5 -28219966#4 -28219966#3 -28219966#2 -46731893#12 -47053172 -28219938#2 -28219938#1 -28219938#0 -187006319 -187006325#3 -187006325#2 -187006371 -187006372#0 134991080#0 134991080#1"/>
    </vehicle>
    <vehicle id="veh46" type="veh_passenger" depart="96.88" departLane="best">
        <route edges="581164403#4 581164403#5 221586756#0 531779316 531779315#0 531779315#1 -275134824#3 -275134824#2 -275134824#1 -275134824#0 -169375096#2 -169375096#1 -169375096#0 -104050395#1 -46731894#1 350836847#2 350836847#3 -28219938#3 47053172 -46731893#10 -46731893#9 -46731893#8 -46731893#7 47053170#0 47053170#2 47053170#4"/>
    </vehicle>
    <vehicle id="veh47" type="veh_passenger" depart="98.99" departLane="best">
        <route edges="-113741469#0 113741469#0 113741469#1 113741469#2 47053167#2 47053167#3 -51177554#0 28710275#0 28710275#1 28710275#2 28710275#3 28710275#4 275134824#0 275134824#1 275134824#2 275134824#3 512138123#0 512138123#1 221586756#2 221586756#3 581164403#0 581164403#1 581164403#2 581164403#3 581164403#4 512138122#0 512138122#1 128196262 169375104 551501626 563917575 563917574 334058300#0 334058300#1 334058300#2 334058300#3 334058300#4 334058300#5 169375105 231248727#1 169375099 520339356#0 520339356#1 520339356#2 307590944#0 307590944#1"/>
    </vehicle>
    <vehicle id="veh49" type="veh_passenger" depart="103.20" departLane="best" departSpeed="max">
        <route edges="-345894658 -196748364 -97556752 -47053162#2 -47053162#1 -47053162#0 51175929#0 51175929#1 51175929#2 233486675#1 233486675#2 47053176#1 46731897#0 46731897#1 319987722 -231248727#0 -334058300#5 28219904#0 28219904#1 28219904#2"/>
    </vehicle>
    <vehicle id="veh50" type="veh_passenger" depart="105.31" departLane="best">
        <route edges="-187006319 187006319 28219938#0 28219938#1 28219938#2 47053172 46731893#12 28219966#2 28219966#3 92017384#1 366892710 -366892712 72675583#1 72675583#2 28219970#0 28219970#1 47053162#0 -580394362#1 -580394362#0"/>
    </vehicle>
    <vehicle id="veh51" type="veh_passenger" depart="107.42" departLane="best" departSpeed="max">
        <route edges="-618306056 -618306055#0 227773684#2 227773684#3 28219968 -28219966#5 -28219966#4 -28219966#3 -28219966#2 -28219966#1 -28219966#0 24888058 169375092#0 169375092#1 24888061#0 24888061#1 104050381 104050395#1 169375096#0 169375096#1 169375096#2 275134824#0 275134824#1 275134824#2 275134824#3 512138123#0 512138123#1 221586756#2 221586756#3 581164403#0"/>
    </vehicle>
    <vehicle id="veh52" type="veh_passenger" depart="109.52" departLane="best">
        <route edges="46731897#1 -46731897#1 -46731897#0 -47053176#1 -47053176#0 -233486675#1 -233486675#0 -51175929#1 -51175929#0 -28219970#1 -28219970#0 28219964#0 28219964#1 227773684#0 227773684#1 227773684#2 227773684#3 28219968 -227773685 -97556749 -28219969#4 -28219969#3 -28219969#2"/>
    </vehicle>
    <vehicle id="veh53" type="veh_passenger" depart="111.63" departLane="best">
        <route edges="113741475#1 113741475#2 47053167#3 -51177554#0 28710275#0 28710275#1 28710275#2 28710275#3 28710275#4 275134824#0 275134824#1 275134824#2 275134824#3 512138123#0 512138123#1 221586756#2 221586756#3 581164403#0 581164403#1 581164403#2 581164403#3 581164403#4 512138122#0 512138122#1 128196262 -366892709#1 -366892709#0 -304251470 -169375094#1 -169375094#0"/>
    </vehicle>
    <vehicle id="veh54" type="veh_passenger" depart="113.73" departLane="best">
        <route edges="51178681#1 51178681#2 51178680#0 51178680#1 -352338175#1 -352338175#0 527439211 -28219967 -97556744 28219935#0 28219935#1 28219935#2 196369840 512906526#1 35028034 28219971#0 47053173#0 47053173#1"/>
    </vehicle>
    <vehicle id="veh55" type="veh_passenger" depart="115.84" departLane="best" departSpeed="max">
        <route edges="-357432942 135848139#1 368207404#1 28219926#0 28219926#1 28219926#2 28219926#3 28219926#4 28219926#5 28219926#6 28219926#7 28219926#8 28710275#0 28710275#1 28710275#2 28710275#3 28710275#4 275134824#0 275134824#1 275134824#2 275134824#3 512138123#0 512138123#1 221586756#2 221586756#3 581164403#0 581164403#1 581164403#2 581164403#3 581164403#4 512138122#0 512138122#1 128196262 169375104 551501626 563917575 563917574 334058300#0 334058300#1 334058300#2 334058300#3 334058300#4 28219904#0 28219904#1 28219904#2"/>
    </vehicle>
    <vehicle id="veh58" type="veh_passenger" depart="122.16" departLane="best">
        <route edges="28710029 51178694 334172554#1 51178681#1 51178681#2 51178680#0 51178680#1 366892707 96041318#0 96041318#1 -24888061#1 -24888061#0 -169375092#1 28220054 104050398 28219966#1 -46731893#12 -46731893#10 -46731893#9 -128197185#2 -128197185#1 135153345"/>
    </vehicle>
    <vehicle id="veh59" type="veh_passenger" depart="124.27" departLane="best">
        <route edges="-104050378 104050378 128006552 128006550 -28219935#2 -28219935#1 -28219935#0 97556744 28219967 -527439211 352338175#0 352338175#1 366892707 96041318#0 96041318#1 104050381 -46731894#1 -350836847#1 -350836847#0 -51177554#0 -28219926#8 -28219926#7 -28219926#6 -28219926#5 -28219926#4 -28219926#3 -28219926#2 -28219926#1 -28219926#0 -368207404#1 -368207404#0"/>
    </vehicle>
    <vehicle id="veh60" type="veh_passenger" depart="126.37" departLane="best">
        <route edges="-113741475#2 113741475#2 47053167#3 -51177554#0 28710275#0 28710275#1 28710275#2 28710275#3 28710275#4 275134824#0 275134824#1 275134824#2 275134824#3 512138123#0 512138123#1 221586756#2 221586756#3 581164403#0 581164403#1 581164403#2 581164403#3 581164403#4 581164403#5 221586756#0 531779316 531779315#0"/>
    </vehicle>
    <vehicle id="veh61" type="veh_passenger" depart="128.48" departLane="best">
        <route edges="47053162#2 -47053162#2 -47053162#1 -47053162#0 -28219970#1 -28219970#0 28219964#0 28219964#1 227773684#0 227773684#1 227773684#2 227773684#3 28219968 -28219966#5 -28219966#4 -28219966#3 -28219966#2 -46731893#12 -46731893#10 -46731893#9 -46731893#8 -46731893#7 -46731893#6 -46731893#5 46731893#5"/>
    </vehicle>
    <vehicle id="veh62" type="veh_passenger" depart="130.58" departLane="best">
        <route edges="-368207404#0 368207404#0 368207404#1 28219926#0 28219926#1 28219926#2 28219926#3 28219926#4 28219926#5 28219926#6 28219926#7 28219926#8 28710275#0 28710275#1 28710275#2 28710275#3 28710275#4 275134824#0 -128196502#2 -128196502#1 -128196502#0"/>
    </vehicle>
    <vehicle id="veh63" type="veh_passenger" depart="132.69" departLane="best">
        <route edges="47053162#1 -47053162#1 -47053162#0 -28219970#1 -28219970#0 28219964#0 28219964#1 227773684#0 227773684#1 227773684#2 227773684#3 28219968 -28219966#5 -28219966#4 -28219966#3 -28219966#2 -28219966#1 -28219966#0 24888058 -28220051 -350836847#3 -350836847#2 -350836847#1 -350836847#0 -51177554#0 -28219926#8 -28219926#7 -28219926#6 -28219926#5 -28219926#4 -28219926#3 -28219926#2 -135399280 554653931"/>
    </vehicle>
    <vehicle id="veh65" type="veh_passenger" depart="136.90" departLane="best">
        <route edges="-135338114 135338114 28219909#8 28219909#9 28219926#1 28219926#2 28219926#3 28219926#4 28219926#5 28219926#6 28219926#7 28219926#8 51177554#0 350836847#0 350836847#1 46731894#1 24888063#1 -366892707 -352338175#1 -352338175#0 527439211 -28219967 -97556744 28219935#0 28219935#1 28219935#2 196369840 512906526#1 28219934#0 28219934#1 28219934#2 72675583#1 72675583#2 28219970#0 28219970#1 47053162#0 47053162#1 47053162#2 97556752 196748364 345894658"/>
    </vehicle>
    <vehicle id="veh67" type="veh_passenger" depart="141.11" departLane="best" departSpeed="max">
        <route edges="-97556753#2 -97556753#1 -97556753#0 169375105 231248727#1 -47053176#4 -47053176#3 -47053176#2 -47053176#1 -47053176#0 -233486675#1 -233486675#0 -51175929#1 -51175929#0 47053162#0 47053162#1 47053162#2 97556752 196748364 136200004"/>
    </vehicle>
    <vehicle id="veh68" type="veh_passenger" depart="143.22" departLane="best">
        <route edges="-334172554#0 51178694 334172554#1 51178681#1 51178681#2 51178680#0 51178680#1 366892707 96041318#0 96041318#1 -24888061#1 -24888061#0 -169375092#1 28220054 104050398 28219966#1 -46731893#12 -46731893#10 -46731893#9 -46731893#8 -46731893#7 47053170#0 47053170#2 47053174#0 47053174#1"/>
    </vehicle>
    <vehicle id="veh69" type="veh_passenger" depart="145.33" departLane="best" departSpeed="max">
        <route edges="-52675839#1 -290584085 -97556753#1 -97556753#0 -296103900#1 -296103900#0 -47053163 -233384994 -233384993"/>
    </vehicle>
    <vehicle id="veh70" type="veh_passenger" depart="147.43" departLane="best">
        <route edges="128196502#2 -275134824#0 -169375096#2 -169375096#1 -169375096#0 -104050395#1 -46731894#1 350836847#2 350836847#3 -28219938#3 47053172 -46731893#10 -46731893#9 -46731893#8 -46731893#7 47053170#0 47053170#2 47053174#0 330002929"/>
    </vehicle>
    <vehicle id="veh71" type="veh_passenger" depart="149.54" departLane="best">
        <route edges="-28219971#1 28219971#1 28219971#2 233384994 97556745 296103900#0 296103900#1 -334058300#5 -334058300#4 -334058300#3 -334058300#2 -334058300#1 -334058300#0 -563917574 -563917575 -551501626 -169375104 -366892709#1 -366892709#0"/>
    </vehicle>
    <vehicle id="veh72" type="veh_passenger" depart="151.65" departLane="best">
        <route edges="97556746 -97556746 -493599811 -51178648 -128005931 -113741477#2 -113741477#1 -113741477#0 -275134823#0 -28710275#4 -28710275#3 -28710275#2 -28710275#1 -28710275#0 -28219926#8 -28219926#7 -28219926#6 -28219926#5 -28219926#4 -28219926#3 -28219926#2 -28219926#1 -28219926#0 28219926#0"/>
    </vehicle>
    <vehicle id="veh73" type="veh_passenger" depart="153.75" departLane="best" departSpeed="max">
        <route edges="-554653931 135399280 28219926#2 28219926#3 28219926#4 28219926#5 28219926#6 28219926#7 28219926#8 51177554#0 -47053167#3 -47053167#2 -47053167#1 -47053167#0 -47053168#3 -47053168#1 -47053168#0 46731889#1 128197182#0 128197182#1"/>
    </vehicle>
    <vehicle id="veh74" type="veh_passenger" depart="155.86" departLane="best" departSpeed="max">
        <route edges="-227773681#1 -227773681#0 104050389#0 104050389#1 104050398 28219966#1 28219966#2 28219966#3 28219966#4 28219966#5 -227773685 -97556749 -28219969#4 -28219969#3 -28219969#2 -28219969#1 -28219969#0 512906526#1 35028034 -28219903#4 -28219903#3"/>
    </vehicle>
    <vehicle id="veh75" type="veh_passenger" depart="157.96" departLane="best">
        <route edges="-46731893#3 46731893#2 46731893#4 46731893#5 46731893#6 46731893#7 46731893#8 46731893#9 46731893#10 46731893#12 -28219966#1 -28219966#0 24888058 169375092#0 169375092#1 24888061#0 24888061#1 104050381 104050395#1 169375096#0 169375096#1 169375096#2 275134824#0 275134824#1 275134824#2 275134824#3 512138123#0 512138123#1 221586756#2"/>
    </vehicle>
    <vehicle id="veh76" type="veh_passenger" depart="160.07" departLane="best" departSpeed="max">
        <route edges="-307590944#1 -307590944#0 -520339356#2 -520339356#1 -520339356#0 -169375099 -231248727#1 -231248727#0 -334058300#5 -334058300#4 -334058300#3 -334058300#2 -334058300#1 -334058300#0 -563917574 -563917575 -551501626 -169375104 -128196263 221586754#0 221586754#1 221586756#0 531779316 531779315#0 531779315#1 -275134824#3 -275134824#2 -275134824#1"/>
    </vehicle>
    <vehicle id="veh77" type="veh_passenger" depart="162.18" departLane="best">
        <route edges="-135626088#1 135626088#1 96041313#0 96041313#1 96041313#2 96041313#4 96041313#5 96041313#6 47053168#3 47053167#0 47053167#1 47053167#2 47053167#3 -51177554#0 28710275#0 28710275#1 28710275#2 28710275#3 28710275#4 275134824#0 275134824#1"/>
    </vehicle>
    <vehicle id="veh78" type="veh_passenger" depart="164.28" departLane="best" departSpeed="max">
        <route edges="-307590944#1 -307590944#0 -520339356#2 -520339356#1 -520339356#0 -169375099 -47053176#4 -47053176#3 -47053176#2 -47053176#1 -47053176#0 -233486675#1 -233486675#0 -51175929#1 -51175929#0 -28219970#1 -28219970#0 28219964#0 28219964#1 227773684#0 227773684#1 227773684#2 227773684#3 28219968 -28219966#5 -28219966#4 -28219966#3 -28219966#2 -46731893#12 -46731893#10 -46731893#9 -46731893#8 -46731893#7 -46731893#6 -46731893#5 -46731893#4 47053171#0 519952415"/>
    </vehicle>
    <vehicle id="veh79" type="veh_passenger" depart="166.39" departLane="best">
        <route edges="46731889#3 -47053169#0 72667894#0 72667894#1 -96041310#1 96041322 46731893#6 46731893#7 46731893#8 -128197185#2 -128197185#1"/>
    </vehicle>
    <vehicle id="veh80" type="veh_passenger" depart="168.50" departLane="best" departSpeed="max">
        <route edges="-311069246 136795980#2 368207414 -169375099 -47053176#4 -47053176#3 -47053176#2 -47053176#1 -47053176#0 -233486675#1 -233486675#0 -51175929#1 -51175929#0 -28219970#1 -28219970#0 28219964#0 28219964#1 227773684#0 227773684#1 227773684#2 227773684#3 28219968 -227773685 -97556749 -28219969#4 -28219969#3 -28219969#2 -28219969#1 -28219969#0 -196369840 -28219935#2 28219935#2"/>
    </vehicle>
    <vehicle id="veh81" type="veh_passenger" depart="170.60" departLane="best" departSpeed="max">
        <route edges="-296686575#1 -296686575#0 366892715 227773684#1 227773684#2 227773684#3 28219968 -28219966#5 -28219966#4 -28219966#3 -28219966#2 -46731893#12 -47053172 -28219938#2 -28219938#1 -28219938#0 -187006319 -187006325#3 -187006325#2 -187006371 -187006372#0 -187006350 -135723481"/>
    </vehicle>
    <vehicle id="veh82" type="veh_passenger" depart="172.71" departLane="best">