<?xml version="1.0" encoding="UTF-8"?>

<!-- generated on 03/19/19 15:15:03 by Eclipse SUMO polyconvert Version 1.1.0
<configuration xmlns:xsi="http://www.w3.org/2001/XMLSchema-instance" xsi:noNamespaceSchemaLocation="http://sumo.dlr.de/xsd/polyconvertConfiguration.xsd">

    <input>
        <net-file value="osm.net.xml"/>
        <osm-files value="osm_bbox.osm.xml"/>
        <osm.keep-full-type value="true"/>
        <type-file value="C:\Program%20Files%20(x86)\Eclipse\Sumo\data\typemap\osmPolyconvert.typ.xml"/>
    </input>

    <output>
        <output-file value="osm.poly.xml"/>
    </output>

    <processing>
        <poi-layer-offset value="5"/>
    </processing>

    <report>
        <verbose value="true"/>
    </report>

</configuration>
-->

<additional xmlns:xsi="http://www.w3.org/2001/XMLSchema-instance" xsi:noNamespaceSchemaLocation="http://sumo.dlr.de/xsd/additional_file.xsd">
    <location netOffset="-614005.76,-5234288.36" convBoundary="-64289.55,-61571.48,15895.30,27205.47" origBoundary="15.650384,46.706159,16.721292,47.498609" projParameter="+proj=utm +zone=33 +ellps=WGS84 +datum=WGS84 +units=m +no_defs"/>

    <poly id="104050391" type="building.yes" color="255,230,230" fill="1" layer="-1.00" shape="2073.031237,15320.858422 2079.497389,15312.659268 2097.074709,15328.637745 2096.008873,15330.995804 2109.163965,15337.703934 2112.402426,15328.940728 2115.276921,15330.187116 2117.358624,15324.180398 2119.597730,15319.377472 2116.148050,15317.819542 2123.322709,15300.518163 2128.729630,15287.473163 2136.721115,15279.648865 2108.930246,15254.807907 2060.436469,15311.771205 2073.031237,15320.858422"/>
    <poly id="104050391#1" type="historic.castle" color="128,255,128" fill="1" layer="-1.00" shape="2073.031237,15320.858422 2079.497389,15312.659268 2097.074709,15328.637745 2096.008873,15330.995804 2109.163965,15337.703934 2112.402426,15328.940728 2115.276921,15330.187116 2117.358624,15324.180398 2119.597730,15319.377472 2116.148050,15317.819542 2123.322709,15300.518163 2128.729630,15287.473163 2136.721115,15279.648865 2108.930246,15254.807907 2060.436469,15311.771205 2073.031237,15320.858422"/>
    <poly id="104050393" type="building.yes" color="255,230,230" fill="1" layer="-1.00" shape="2088.047482,15305.979922 2106.838924,15283.071491 2113.855680,15290.180812 2102.396585,15317.981286 2088.047482,15305.979922"/>
    <poly id="122206633" type="landuse.residential" color="235,235,227" fill="1" layer="-3.00" shape="2354.313200,15559.567342 2382.567326,15518.614655 2398.895611,15487.453658 2479.376487,15287.123174 2487.595161,15259.492572 2499.964423,15213.689470 2546.428674,15111.252390 2561.914905,15044.621582 2562.526346,15025.222671 2642.137740,14830.835833 2574.536773,14808.070688 2496.963815,14857.127279 2439.663106,14875.424497 2339.611081,14965.461074 2295.055672,14983.055982 2294.965984,14983.009737 2241.855612,14955.621388 2171.441931,14940.320587 2139.882176,14985.733724 2098.929794,15041.111563 2036.859031,15126.756481 2062.365637,15143.447338 2109.712284,15170.175419 2052.836625,15229.852524 2024.577095,15258.521906 2003.802514,15302.725719 2004.963932,15319.991749 2006.481210,15334.529927 2007.596958,15349.137997 2008.157236,15366.258748 2035.489579,15397.104696 2030.634936,15402.845430 2048.660634,15435.097396 2113.383542,15509.595841 2147.577312,15503.023382 2185.521820,15483.551287 2211.942042,15502.806837 2217.404547,15506.794903 2234.432230,15519.216497 2262.355430,15539.569305 2354.313200,15559.567342"/>
    <poly id="127971231" type="leisure.park" color="207,245,201" fill="1" layer="-2.00" shape="2147.920579,15144.715949 2139.691229,15146.231963 2090.866027,15209.592116 2032.032766,15261.381828 2010.659251,15296.535339 2009.763993,15318.163241 2019.822429,15333.348173 2059.993670,15368.950398 2089.889176,15346.494808 2064.858343,15325.644165 2032.357632,15315.641179 2096.169940,15241.103621 2129.852230,15263.915329 2142.627827,15282.567244 2146.127644,15285.026691 2185.600016,15312.811543 2193.040689,15307.644604 2153.450023,15273.242503 2111.238737,15236.565402 2165.028037,15155.838131 2147.920579,15144.715949"/>
    <poly id="128003518" type="building.yes" color="255,230,230" fill="1" layer="-1.00" shape="2139.140203,15305.455739 2141.734379,15296.824335 2175.786109,15311.238866 2173.107404,15318.034212 2139.140203,15305.455739"/>
    <poly id="128003520" type="building.yes" color="255,230,230" fill="1" layer="-1.00" shape="2136.100341,15346.174302 2137.075512,15337.710998 2173.358957,15332.036013 2174.886429,15330.387495 2177.819894,15325.598323 2178.759078,15318.957568 2185.710866,15321.329676 2184.255116,15327.748981 2180.575237,15335.158213 2172.800352,15343.865011 2136.100341,15346.174302"/>
    <poly id="128003521" type="leisure.park" color="207,245,201" fill="1" layer="-2.00" shape="2361.901066,15380.815978 2383.276743,15385.275119 2380.654575,15401.399024 2392.636979,15403.637598 2385.362541,15449.942077 2358.510893,15470.388649 2319.653863,15475.288866 2322.995015,15443.436902 2353.707152,15446.869059 2361.901066,15380.815978"/>
    <poly id="128003522" type="leisure.park" color="207,245,201" fill="1" layer="-2.00" shape="2371.045211,15471.437436 2390.062851,15451.625010 2386.455447,15479.369341 2371.045211,15471.437436"/>
    <poly id="128003943" type="amenity.place_of_worship" color="237,199,199" fill="1" layer="-1.00" shape="1411.846544,16267.114232 1420.817985,16275.372907 1404.498868,16292.995605 1395.527433,16284.736955 1411.846544,16267.114232"/>
    <poly id="128003943#1" type="building.church" color="255,230,230" fill="1" layer="-1.00" shape="1411.846544,16267.114232 1420.817985,16275.372907 1404.498868,16292.995605 1395.527433,16284.736955 1411.846544,16267.114232"/>
    <poly id="128003944" type="leisure.park" color="207,245,201" fill="1" layer="-2.00" shape="1896.494561,16226.286935 1855.595274,16268.404164 1752.242932,16383.120873 1745.749958,16400.035859 1745.513337,16419.697886 1755.869513,16433.876623 1795.441593,16466.619453 1816.098997,16473.630626 1828.903585,16473.116108 1841.043255,16466.896385 1853.543202,16453.513062 1881.236854,16421.452177 1929.536566,16357.735585 1940.339914,16346.575772 1957.532107,16342.157008 1970.406801,16338.108833 1978.689212,16329.233957 1989.674519,16314.220080 1993.989994,16306.311901 1996.855791,16296.129369 1992.841884,16286.477978 1984.399182,16277.094867 1958.457575,16256.304345 1930.532312,16236.186295 1908.243824,16226.107499 1902.201321,16224.376203 1896.494561,16226.286935"/>
    <poly id="128003944#1" type="natural.water" color="181,209,209" fill="1" layer="-4.00" shape="1896.494561,16226.286935 1855.595274,16268.404164 1752.242932,16383.120873 1745.749958,16400.035859 1745.513337,16419.697886 1755.869513,16433.876623 1795.441593,16466.619453 1816.098997,16473.630626 1828.903585,16473.116108 1841.043255,16466.896385 1853.543202,16453.513062 1881.236854,16421.452177 1929.536566,16357.735585 1940.339914,16346.575772 1957.532107,16342.157008 1970.406801,16338.108833 1978.689212,16329.233957 1989.674519,16314.220080 1993.989994,16306.311901 1996.855791,16296.129369 1992.841884,16286.477978 1984.399182,16277.094867 1958.457575,16256.304345 1930.532312,16236.186295 1908.243824,16226.107499 1902.201321,16224.376203 1896.494561,16226.286935"/>
    <poly id="128003998" type="amenity.school" color="237,199,199" fill="1" layer="-1.00" shape="1914.423275,15070.697718 1957.561324,15098.030756 1943.201990,15120.549090 1931.681143,15113.251037 1937.103951,15104.742085 1930.064525,15100.289602 1925.117233,15108.040845 1926.884636,15109.154113 1911.317485,15133.583109 1900.684212,15126.836267 1916.897706,15101.408316 1918.612721,15102.498312 1922.679763,15096.119366 1914.730743,15091.081966 1908.045625,15101.578278 1898.568067,15095.565760 1914.423275,15070.697718"/>
    <poly id="128004001" type="amenity.public_building" color="237,199,199" fill="1" layer="-1.00" shape="1514.735207,14885.969265 1510.274855,14884.336246 1503.409106,14884.846056 1499.248994,14887.143376 1496.432565,14890.223098 1494.535097,14894.566033 1494.252025,14899.363167 1495.620188,14903.892597 1497.402208,14906.573565 1501.057413,14909.602649 1503.864966,14910.814056 1508.580246,14911.384817 1512.476439,14910.605392 1516.599897,14908.251773 1519.613973,14904.720136 1521.294330,14900.284000 1521.474079,14896.518749 1520.227566,14891.947236 1518.831025,14889.629597 1514.735207,14885.969265"/>
    <poly id="128004001#1" type="building.yes" color="255,230,230" fill="1" layer="-1.00" shape="1514.735207,14885.969265 1510.274855,14884.336246 1503.409106,14884.846056 1499.248994,14887.143376 1496.432565,14890.223098 1494.535097,14894.566033 1494.252025,14899.363167 1495.620188,14903.892597 1497.402208,14906.573565 1501.057413,14909.602649 1503.864966,14910.814056 1508.580246,14911.384817 1512.476439,14910.605392 1516.599897,14908.251773 1519.613973,14904.720136 1521.294330,14900.284000 1521.474079,14896.518749 1520.227566,14891.947236 1518.831025,14889.629597 1514.735207,14885.969265"/>
    <poly id="128004089" type="historic.castle" color="128,255,128" fill="1" layer="-1.00" shape="2171.144709,15155.781220 2184.926677,15156.387328 2396.084055,15256.355487 2353.148048,15379.052785 2346.065018,15444.294073 2253.297300,15451.773590 2155.084479,15400.569212 2123.867149,15375.704864 2062.041099,15333.726438 2050.639353,15312.022324 2119.337744,15221.394597 2136.628063,15198.056349 2171.144709,15155.781220"/>
    <poly id="128004089#1" type="landuse.residential" color="235,235,227" fill="1" layer="-3.00" shape="2171.144709,15155.781220 2184.926677,15156.387328 2396.084055,15256.355487 2353.148048,15379.052785 2346.065018,15444.294073 2253.297300,15451.773590 2155.084479,15400.569212 2123.867149,15375.704864 2062.041099,15333.726438 2050.639353,15312.022324 2119.337744,15221.394597 2136.628063,15198.056349 2171.144709,15155.781220"/>
    <poly id="128004231" type="tourism.museum" color="207,245,201" fill="1" layer="-2.00" shape="2291.043968,15219.633054 2301.871659,15224.538983 2303.340470,15220.899316 2305.115833,15214.742065 2295.122966,15211.142280 2291.043968,15219.633054"/>
    <poly id="128004232" type="leisure.park" color="207,245,201" fill="1" layer="-2.00" shape="2145.642152,15666.922557 2167.185607,15640.333309 2177.622870,15626.776396 2174.856901,15623.486513 2143.612506,15612.273658 2145.582209,15634.069398 2146.073126,15645.129821 2145.642152,15666.922557"/>
    <poly id="128005773" type="landuse.cemetery" color="194,194,130" fill="1" layer="-3.00" shape="2089.131118,15028.811055 2141.316165,14970.486760 2162.792358,14943.217944 2024.273506,14875.966186 1910.914997,14813.427684 1901.432284,14811.862034 1894.038508,14815.018029 1884.664124,14823.271195 1879.453812,14842.434845 1884.520619,14889.872624 1835.883880,14893.560445 1838.281754,14930.094982 1889.810913,14926.742187 1890.193940,14932.586372 2075.772456,15028.547070 2089.131118,15028.811055"/>
    <poly id="128005774" type="leisure.pitch" color="207,245,201" fill="1" layer="-2.00" shape="2996.283501,14834.064914 2947.897383,14932.413742 2939.485882,14940.017396 2929.009745,14944.378137 2917.679392,14944.997545 2906.787397,14941.801293 2897.594626,14935.170229 2891.150660,14925.858982 2888.197005,14914.927337 2889.078295,14903.649537 2937.463621,14805.300242 2945.861092,14797.651830 2956.345487,14793.269040 2967.699224,14792.627926 2978.614335,14795.813624 2987.821898,14802.467338 2994.265198,14811.812029 2997.203183,14822.765653 2996.283501,14834.064914"/>
    <poly id="128005774#1" type="sport.soccer" color="79,230,125" fill="1" layer="-2.00" shape="2996.283501,14834.064914 2947.897383,14932.413742 2939.485882,14940.017396 2929.009745,14944.378137 2917.679392,14944.997545 2906.787397,14941.801293 2897.594626,14935.170229 2891.150660,14925.858982 2888.197005,14914.927337 2889.078295,14903.649537 2937.463621,14805.300242 2945.861092,14797.651830 2956.345487,14793.269040 2967.699224,14792.627926 2978.614335,14795.813624 2987.821898,14802.467338 2994.265198,14811.812029 2997.203183,14822.765653 2996.283501,14834.064914"/>
    <poly id="128005776" type="landuse.forest" color="140,196,107" fill="1" layer="-3.00" shape="3823.570732,14933.324624 3824.907845,14937.431573 3828.920308,14941.414304 3845.190589,14946.354448 3854.400908,14948.673787 3854.464358,14954.167117 3871.266507,14968.345552 3898.477370,14986.446189 3905.931413,14987.485199 3914.985937,14979.506677 3917.122698,14970.855661 3916.335166,14965.703554 3920.930265,14958.335932 3926.125045,14947.800737 3928.818483,14937.748973 3933.651239,14927.195400 3940.566800,14919.707614 3943.337701,14914.449066 3942.177825,14910.167765 3947.351484,14900.688329 3958.705921,14884.595778 3954.981525,14875.293445 3941.929370,14860.489657 3932.857656,14860.663294 3922.248628,14865.953502 3912.374907,14861.319417 3907.036071,14852.696235 3900.479602,14851.319483 3888.912819,14860.314899 3878.743819,14870.394549 3841.119631,14909.907366 3823.570732,14933.324624"/>
    <poly id="128005778" type="leisure.pitch" color="207,245,201" fill="1" layer="-2.00" shape="2864.869144,14979.300211 2892.229141,14953.240504 2853.802385,14913.153552 2826.449936,14939.213587 2864.869144,14979.300211"/>
    <poly id="128005778#1" type="sport.tennis" color="79,230,125" fill="1" layer="-2.00" shape="2864.869144,14979.300211 2892.229141,14953.240504 2853.802385,14913.153552 2826.449936,14939.213587 2864.869144,14979.300211"/>
    <poly id="128005926" type="leisure.park" color="207,245,201" fill="1" layer="-2.00" shape="2808.766049,15196.308804 2789.301574,15177.344499 2764.437759,15205.522106 2747.048126,15244.743465 2743.935739,15279.401411 2761.335617,15320.937438 2768.167385,15364.275683 2758.604223,15397.193359 2686.998926,15507.934353 2713.256701,15524.265103 2796.326181,15414.497241 2806.784816,15377.561789 2807.131787,15339.613684 2794.041766,15285.244717 2784.499502,15255.582610 2802.114100,15205.059374 2808.766049,15196.308804"/>
    <poly id="128005929" type="leisure.park" color="207,245,201" fill="1" layer="-2.00" shape="2730.842606,15265.422257 2739.069938,15238.937232 2760.553540,15196.962278 2785.784701,15170.815334 2758.062964,15139.179843 2697.584050,15186.427852 2674.942490,15225.144842 2730.842606,15265.422257"/>
    <poly id="128005934" type="leisure.park" color="207,245,201" fill="1" layer="-2.00" shape="2511.955548,14901.082743 2554.086497,14926.977199 2560.529447,14923.047173 2565.895346,14877.127470 2561.562512,14870.982496 2553.200854,14869.627025 2511.955548,14901.082743"/>
    <poly id="128006258" type="leisure.park" color="207,245,201" fill="1" layer="-2.00" shape="1424.019972,14930.045248 1502.039325,14853.901745 1599.382533,14929.313378 1550.104167,14938.015967 1424.019972,14930.045248"/>
    <poly id="128006549" type="leisure.park" color="207,245,201" fill="1" layer="-2.00" shape="2174.787670,15346.450206 2132.164583,15351.254963 2120.972676,15343.774020 2135.160537,15302.064063 2140.803379,15294.271156 2146.127644,15285.026691 2142.627827,15282.567244 2140.263628,15289.113122 2126.963431,15303.869777 2112.094813,15339.918649 2118.991743,15351.939507 2131.747228,15359.762649 2148.062703,15361.652813 2163.268765,15355.505426 2174.787670,15346.450206"/>
    <poly id="128006554" type="amenity.parking" color="184,184,179" fill="1" layer="-1.00" shape="2062.741916,15370.472201 2102.263909,15399.936214 2108.592035,15402.918480 2113.779700,15404.777584 2115.954701,15381.829774 2088.997933,15352.625121 2062.741916,15370.472201"/>
    <poly id="128006732" type="leisure.park" color="207,245,201" fill="1" layer="-2.00" shape="2163.752512,15108.474973 2178.429834,15103.517827 2207.472658,15109.751075 2184.704659,15083.252603 2164.467564,15103.241696 2163.752512,15108.474973"/>
    <poly id="128066183" type="waterway.river" color="181,209,209" fill="0" layer="-4.00" shape="2970.395683,14991.661943 2972.616742,14990.461014 3038.854483,14959.072762 3070.395229,14941.123963 3083.244024,14926.449277 3105.778595,14860.338158 3124.546222,14746.491417 3144.308317,14694.133048 3164.496226,14646.185748 3172.553150,14628.758594 3214.695437,14576.090848 3237.193967,14581.164633"/>
    <poly id="128198685" type="waterway.drain" color="181,209,209" fill="0" layer="-4.00" shape="3680.392583,16815.431772 3549.614703,16875.781584"/>
    <poly id="128198687" type="waterway.drain" color="181,209,209" fill="0" layer="-4.00" shape="3590.350014,16944.414367 3549.614703,16875.781584 3333.391320,16613.162814 3112.470412,16359.141899"/>
    <poly id="133255339" type="building.yes" color="255,230,230" fill="1" layer="-1.00" shape="2198.769932,15270.681361 2193.674100,15281.731321 2192.061172,15285.790624 2195.413913,15287.669086 2198.717513,15280.963933 2217.971834,15291.161546 2215.503080,15295.737545 2211.710946,15293.172215 2210.417551,15295.581340 2209.359800,15297.528196 2223.962432,15308.534312 2235.749049,15290.156989 2198.769932,15270.681361"/>
    <poly id="133255340" type="amenity.place_of_worship" color="237,199,199" fill="1" layer="-1.00" shape="2252.427911,15291.243056 2271.393263,15302.302289 2267.886279,15307.836048 2272.433072,15310.416355 2274.433302,15314.636101 2272.119190,15319.026143 2267.658601,15319.338072 2263.458023,15316.431100 2260.026996,15319.653944 2257.893439,15318.355445 2241.346416,15308.322447 2252.427911,15291.243056"/>
    <poly id="133255340#1" type="building.church" color="255,230,230" fill="1" layer="-1.00" shape="2252.427911,15291.243056 2271.393263,15302.302289 2267.886279,15307.836048 2272.433072,15310.416355 2274.433302,15314.636101 2272.119190,15319.026143 2267.658601,15319.338072 2263.458023,15316.431100 2260.026996,15319.653944 2257.893439,15318.355445 2241.346416,15308.322447 2252.427911,15291.243056"/>
    <poly id="133255341" type="amenity.place_of_worship" color="237,199,199" fill="1" layer="-1.00" shape="2266.086582,15268.311347 2280.923795,15275.475621 2283.621746,15282.588595 2281.275495,15288.601141 2274.688015,15290.327343 2257.936867,15281.068478 2266.086582,15268.311347"/>
    <poly id="133255341#1" type="building.church" color="255,230,230" fill="1" layer="-1.00" shape="2266.086582,15268.311347 2280.923795,15275.475621 2283.621746,15282.588595 2281.275495,15288.601141 2274.688015,15290.327343 2257.936867,15281.068478 2266.086582,15268.311347"/>
    <poly id="133256011" type="amenity.public_building" color="237,199,199" fill="1" layer="-1.00" shape="2278.806057,15390.076555 2327.250236,15391.736202 2340.232238,15338.173864 2328.190218,15334.744658 2321.995942,15360.458880 2313.117189,15379.149321 2300.564738,15377.099738 2301.560755,15371.027111 2294.140482,15369.824033 2294.991035,15364.615685 2280.955780,15362.336673 2278.806057,15390.076555"/>
    <poly id="133256011#1" type="building.yes" color="255,230,230" fill="1" layer="-1.00" shape="2278.806057,15390.076555 2327.250236,15391.736202 2340.232238,15338.173864 2328.190218,15334.744658 2321.995942,15360.458880 2313.117189,15379.149321 2300.564738,15377.099738 2301.560755,15371.027111 2294.140482,15369.824033 2294.991035,15364.615685 2280.955780,15362.336673 2278.806057,15390.076555"/>
    <poly id="133256012" type="building.yes" color="255,230,230" fill="1" layer="-1.00" shape="2260.460461,15351.536170 2272.686327,15331.566704 2266.112823,15328.012415 2272.119190,15319.026143 2267.658601,15319.338072 2263.458023,15316.431100 2260.026996,15319.653944 2257.893439,15318.355445 2255.419331,15321.675054 2242.055696,15313.683962 2244.216567,15310.169152 2237.416037,15305.876655 2213.218036,15348.266602 2241.815177,15365.130621 2244.697393,15360.262645 2227.570463,15350.162617 2236.508740,15334.174766 2255.844653,15345.196817 2254.257430,15347.955874 2260.460461,15351.536170"/>
    <poly id="133256013" type="building.yes" color="255,230,230" fill="1" layer="-1.00" shape="2298.748312,15279.330502 2301.773988,15271.797210 2357.496877,15294.057261 2354.471138,15301.590525 2298.748312,15279.330502"/>
    <poly id="133256014" type="building.yes" color="255,230,230" fill="1" layer="-1.00" shape="2203.568695,15450.189179 2213.439063,15432.107430 2193.189113,15421.123015 2190.721747,15425.632346 2165.332745,15411.855954 2166.499635,15409.733372 2160.352153,15406.398857 2158.660070,15409.500504 2155.306290,15407.677627 2151.092066,15415.387595 2170.490351,15425.921438 2168.978657,15428.682010 2187.047397,15438.489217 2185.895818,15440.600981 2203.568695,15450.189179"/>
    <poly id="133256015" type="building.yes" color="255,230,230" fill="1" layer="-1.00" shape="2259.811422,15472.814401 2275.112630,15472.150082 2275.252810,15475.365792 2295.314375,15474.495598 2295.167980,15471.213058 2306.782007,15470.698163 2306.927735,15474.014042 2316.350354,15473.600299 2315.829410,15461.783274 2318.874698,15461.643469 2318.274448,15448.112790 2295.651144,15449.098948 2296.006111,15457.099405 2276.518696,15457.947614 2276.690516,15461.853232 2259.364122,15462.610870 2259.811422,15472.814401"/>
    <poly id="133256016" type="building.yes" color="255,230,230" fill="1" layer="-1.00" shape="2277.396184,15440.699626 2294.354616,15439.845813 2292.983714,15412.614331 2300.782772,15412.224000 2300.441334,15405.446728 2294.146058,15405.766776 2293.642238,15395.751119 2280.386890,15396.411430 2282.045849,15429.307378 2276.838874,15429.571169 2277.396184,15440.699626"/>
    <poly id="133256017" type="building.yes" color="255,230,230" fill="1" layer="-1.00" shape="2260.682332,15386.860610 2274.723463,15393.797892 2272.513313,15413.532035 2262.269174,15409.293626 2256.566133,15420.887386 2269.411957,15426.800432 2262.425545,15442.204293 2239.519385,15433.068214 2240.773862,15430.335921 2245.800210,15419.362446 2250.913330,15408.201697 2253.186224,15403.221608 2254.685223,15399.960521 2260.682332,15386.860610"/>
    <poly id="133256018" type="leisure.park" color="207,245,201" fill="1" layer="-2.00" shape="2274.670295,15330.505353 2281.506851,15332.975352 2275.377188,15380.225342 2269.402979,15383.775827 2264.115929,15380.836228 2240.220350,15367.511539 2244.697393,15360.262645 2227.570463,15350.162617 2236.508740,15334.174766 2255.844653,15345.196817 2254.257430,15347.955874 2260.460461,15351.536170 2272.686327,15331.566704 2274.670295,15330.505353"/>
    <poly id="133256019" type="building.yes" color="255,230,230" fill="1" layer="-1.00" shape="2324.383943,15278.381753 2358.404373,15290.551014 2361.880147,15280.881004 2354.645772,15278.291858 2352.832231,15283.325480 2345.755241,15280.795050 2346.362489,15279.106112 2339.140338,15276.661755 2326.668921,15272.034487 2324.383943,15278.381753"/>
    <poly id="133256020" type="building.yes" color="255,230,230" fill="1" layer="-1.00" shape="2138.819642,15406.050871 2148.725641,15407.158382 2150.173177,15394.279688 2154.218336,15394.737675 2154.850269,15389.124761 2150.081712,15388.596881 2150.613705,15383.838030 2145.442791,15378.077013 2141.178665,15386.019468 2138.819642,15406.050871"/>
    <poly id="133256022" type="building.yes" color="255,230,230" fill="1" layer="-1.00" shape="2335.377171,15252.051064 2346.154894,15256.044460 2349.790912,15246.288677 2340.624552,15242.894180 2341.405979,15240.797347 2338.355480,15239.669654 2339.384511,15236.888444 2320.796902,15230.005511 2315.741416,15243.579829 2313.328008,15242.687114 2306.223390,15261.757339 2325.477970,15268.886904 2324.592719,15271.270736 2326.668921,15272.034487 2339.140338,15276.661755 2342.377414,15267.987574 2331.712255,15264.029767 2332.908349,15260.818285 2364.252057,15272.434279 2366.373153,15266.739708 2334.324623,15254.876278 2335.377171,15252.051064"/>
    <poly id="133314008" type="building.yes" color="255,230,230" fill="1" layer="-1.00" shape="2363.072667,15239.358805 2383.666881,15246.704096 2351.620980,15336.087029 2361.112142,15339.465750 2366.706050,15323.867645 2388.244700,15331.542963 2386.630165,15336.058000 2372.018838,15330.843473 2367.471905,15343.516197 2399.381041,15353.242520 2429.516155,15269.258369 2411.785855,15262.936888 2403.938223,15284.816108 2388.299673,15279.236548 2399.775748,15247.223412 2364.734689,15234.733529 2363.072667,15239.358805"/>
    <poly id="133315493" type="building.yes" color="255,230,230" fill="1" layer="-1.00" shape="2430.139719,15265.223985 2431.836514,15245.135068 2416.765882,15245.180995 2414.587162,15263.303695 2429.749996,15268.507019 2430.139719,15265.223985"/>
    <poly id="133315495" type="building.yes" color="255,230,230" fill="1" layer="-1.00" shape="2431.539529,15243.739502 2430.550442,15236.504684 2425.763824,15228.883306 2407.239692,15217.276447 2352.804144,15184.502129 2348.165777,15189.590972 2340.375436,15184.189246 2315.217752,15196.820697 2302.664876,15211.169313 2313.305374,15215.615742 2318.900870,15209.467436 2337.041734,15199.265150 2345.995183,15207.313623 2351.571068,15201.776417 2347.280129,15197.711385 2350.993157,15194.360765 2364.779313,15203.516681 2360.332611,15209.220770 2357.134996,15207.134056 2353.879070,15212.183575 2363.084239,15217.813463 2365.162762,15215.030813 2382.316141,15224.186777 2380.715337,15227.245704 2393.259939,15233.897907 2395.440428,15230.161189 2417.546027,15244.673938 2431.539529,15243.739502"/>
    <poly id="133317267" type="building.yes" color="255,230,230" fill="1" layer="-1.00" shape="2336.292370,15213.847486 2342.277391,15216.623090 2340.692643,15220.015869 2363.442591,15230.594484 2360.501850,15236.884278 2331.766910,15223.530073 2336.292370,15213.847486"/>
    <poly id="133317790" type="building.yes" color="255,230,230" fill="1" layer="-1.00" shape="2272.267423,15198.260540 2296.277926,15208.863840 2295.122966,15211.142280 2291.043968,15219.633054 2288.917113,15218.757140 2284.870010,15226.781618 2282.264261,15225.307003 2261.783229,15216.430111 2242.039188,15206.934185 2246.326279,15199.370243 2277.400574,15213.559664 2278.438667,15210.700802 2268.876043,15206.342478 2272.267423,15198.260540"/>
    <poly id="133317791" type="building.yes" color="255,230,230" fill="1" layer="-1.00" shape="2324.481064,15228.110686 2326.244186,15222.953766 2305.115833,15214.742065 2303.340470,15220.899316 2324.481064,15228.110686"/>
    <poly id="133317877" type="building.yes" color="255,230,230" fill="1" layer="-1.00" shape="2223.962432,15308.534312 2203.997947,15337.289172 2202.173825,15331.416440 2203.896072,15326.792315 2203.557786,15325.573824 2201.888318,15324.095532 2200.798285,15319.660353 2198.810255,15311.005026 2202.369990,15307.762459 2206.344706,15311.020675 2207.946201,15308.684349 2203.997346,15306.026984 2209.359800,15297.528196 2223.962432,15308.534312"/>
    <poly id="133318014" type="building.yes" color="255,230,230" fill="1" layer="-1.00" shape="2106.469092,15165.041774 2097.287029,15157.845203 2103.493250,15148.673718 2104.803012,15149.255477 2106.114341,15146.702158 2115.734476,15151.216990 2106.469092,15165.041774"/>
    <poly id="133318146" type="building.yes" color="255,230,230" fill="1" layer="-1.00" shape="2183.390219,15157.724379 2192.251836,15160.123146 2193.362737,15144.803090 2188.602189,15139.661619 2182.002771,15135.495465 2171.622469,15138.113985 2162.249583,15151.258399 2170.032211,15157.059956 2177.118702,15146.905386 2183.995374,15151.177076 2183.390219,15157.724379"/>
    <poly id="133318146#1" type="tourism.museum" color="207,245,201" fill="1" layer="-2.00" shape="2183.390219,15157.724379 2192.251836,15160.123146 2193.362737,15144.803090 2188.602189,15139.661619 2182.002771,15135.495465 2171.622469,15138.113985 2162.249583,15151.258399 2170.032211,15157.059956 2177.118702,15146.905386 2183.995374,15151.177076 2183.390219,15157.724379"/>
    <poly id="133318147" type="building.yes" color="255,230,230" fill="1" layer="-1.00" shape="2164.282650,15178.258326 2175.747871,15162.009071 2170.021297,15157.993602 2158.556085,15174.242868 2164.282650,15178.258326"/>
    <poly id="133318288" type="building.yes" color="255,230,230" fill="1" layer="-1.00" shape="2174.971376,15185.618214 2186.963152,15168.323241 2203.014538,15179.391298 2191.022735,15196.686240 2174.971376,15185.618214"/>
    <poly id="133318668" type="building.yes" color="255,230,230" fill="1" layer="-1.00" shape="2178.599580,15124.710970 2196.424613,15130.855718 2199.874038,15120.217885 2182.741996,15114.153538 2173.055116,15116.830242 2176.039413,15125.127266 2178.599580,15124.710970"/>
    <poly id="133318669" type="building.yes" color="255,230,230" fill="1" layer="-1.00" shape="2194.640327,15143.194103 2210.772692,15146.737292 2214.727393,15126.970948 2199.874038,15120.217885 2196.424613,15130.855718 2194.640327,15143.194103"/>
    <poly id="133318670" type="building.yes" color="255,230,230" fill="1" layer="-1.00" shape="2156.218830,15133.606984 2176.482939,15126.370071 2176.039413,15125.127266 2173.055116,15116.830242 2172.418145,15115.061094 2152.154003,15122.298021 2156.218830,15133.606984"/>
    <poly id="133319069" type="building.yes" color="255,230,230" fill="1" layer="-1.00" shape="2273.431876,15147.443634 2291.031123,15150.493563 2348.665266,15168.566700 2347.154403,15173.183857 2309.675311,15195.332388 2309.259420,15188.120064 2299.192403,15185.975187 2302.031116,15179.116356 2313.321129,15178.217046 2310.391067,15172.911604 2271.849171,15158.362962 2273.431876,15147.443634"/>
    <poly id="133319072" type="building.yes" color="255,230,230" fill="1" layer="-1.00" shape="2299.489444,15209.105304 2309.259420,15188.120064 2299.192403,15185.975187 2290.975258,15206.324141 2299.489444,15209.105304"/>
    <poly id="133319568" type="building.yes" color="255,230,230" fill="1" layer="-1.00" shape="2340.357485,15334.518712 2350.897353,15303.632043 2344.522754,15301.471285 2341.597096,15310.051575 2338.034764,15308.847039 2336.712265,15312.723061 2311.446498,15304.151442 2313.041202,15299.491468 2327.267700,15304.320229 2328.958922,15299.362000 2306.662968,15291.794203 2308.345968,15286.869157 2297.809188,15283.291945 2286.556535,15316.254663 2340.357485,15334.518712"/>