<routes>
<vType id="carType0" length="3" speedFactor="0.91" speedDev="0.1"/>
<vType id="carType1" length="4" speedFactor="0.92" speedDev="0.1"/>
<vType id="carType2" length="3" speedFactor="0.87" speedDev="0.1"/>
<vehicle id="car0" type="carType2" depart="0">
<route edges="-135610475 135610475 96041313#6 350836846#0 350836846#1 -350836847#0 47053167#4 96041312#0 -113741473#1 "/>
</vehicle>
<vehicle id="car1" type="carType2" depart="0">
<route edges="-304251470 304251470 366892709#0 366892709#1 -128196263 221586754#0 221586754#1 221586756#0 531779316 531779315#0 531779315#1 -275134824#3 128196501 -128196503 -519953991 344436919 28219926#0 28219926#1 28219926#2 "/>
</vehicle>
<vehicle id="car2" type="carType0" depart="0">
<route edges="96041310#0 96041310#1 -72667894#1 -72667894#0 47053169#0 -46731889#3 -46731889#2 -46731889#1 46731889#1 "/>
</vehicle>
<vehicle id="car3" type="carType0" depart="1">
<route edges="307590944#0 -307590944#0 -307590939 -169375101#1 128196089 -128196089 "/>
</vehicle>
<vehicle id="car4" type="carType0" depart="1">
<route edges="128196502#0 128196502#1 128196502#2 275134824#1 -520321478 134124136 -334172554#0 -28710029 -128005927 334058300#3 334058300#4 334058300#5 169375105 231248727#1 -47053176#4 -47053176#3 -47053176#2 46731897#0 46731897#1 "/>
</vehicle>
<vehicle id="car5" type="carType2" depart="1">
<route edges="-135848139#1 135848139#1 368207404#1 -344436919 519953991 128196503 128196502#0 128196502#1 128196502#2 -275134824#0 275134823#0 113741477#0 113741477#1 113741477#2 gneE10 gneE15 gneE13 51178648 493599811 97556746 104050400 196369840 512906526#1 28219934#0 "/>
</vehicle>
<vehicle id="car6" type="carType2" depart="2">
<route edges="-51180148 51180148 128006550 -28219935#2 -28219935#1 -28219935#0 "/>
</vehicle>
<vehicle id="car7" type="carType1" depart="2">
<route edges="46731896#0 -46731896#0 28710029 51178694 -134124136 520321478 275134824#2 "/>
</vehicle>
<vehicle id="car8" type="carType1" depart="3">
<route edges="-136622132 136622132 -128197181#3 -128197181#2 -128197181#1 -128197181#0 -47053174#1 -47053174#0 -47053170#2 -47053170#1 46731893#7 -135153345 "/>
</vehicle>
<vehicle id="car9" type="carType1" depart="3">
<route edges="-307590944#0 -307590939 -169375101#1 -169375101#0 -47053176#2 -47053176#1 -47053176#0 -51176105 -51179858 -97723906#1 -97723906#0 -97723902 -97556746 -493599811 46731895 -46731895 "/>
</vehicle>
<vehicle id="car10" type="carType0" depart="4">
<route edges="-46731892#3 -113741474#1 -113741474#0 -169375096#1 -169375096#0 24888063#0 -46731894#1 350836847#2 350836847#3 -28219938#3 47053172 46731893#12 28219966#2 28219966#3 28219966#4 28219966#5 "/>
</vehicle>
<vehicle id="car11" type="carType1" depart="4">
<route edges="47053166#0 -47053166#0 -28219909#8 -135338114 -518823482 135626088#1 -47053169#1 -47053169#0 187006319 28219938#0 28219938#1 28219938#2 47053172 46731893#12 28219966#2 28219966#3 92017384#1 366892710 -366892712 -72675518#1 -72675518#0 28219903#3 28219903#4 -28219903#4 "/>
</vehicle>
<vehicle id="car12" type="carType2" depart="4">
<route edges="-196369840 196369840 512906526#1 28219934#0 28219934#1 28219934#2 366892712 -366892710 366892715 "/>
</vehicle>
<vehicle id="car13" type="carType1" depart="4">
<route edges="-350836846#1 350836846#1 350836847#1 46731894#1 104050395#1 169375096#0 169375096#1 169375096#2 275134824#0 -128196502#2 -128196502#1 -128196502#0 135399059 128196500#0 553313621#1 -567035687 "/>
</vehicle>
<vehicle id="car14" type="carType1" depart="4">
<route edges="113741472#1 113741475#1 113741475#2 47053167#3 350836847#0 350836847#1 350836847#2 350836847#3 -28219938#3 47053172 46731893#12 28219966#2 28219966#3 -47053174#2 "/>
</vehicle>
<vehicle id="car15" type="carType2" depart="4">
<route edges="334058300#2 334058300#3 334058300#4 334058300#5 -296103900#1 -296103900#0 -47053164#4 -47053164#3 -367682057#1 -367682057#0 128196088#2 "/>
</vehicle>
<vehicle id="car16" type="carType0" depart="4">
<route edges="-422001146 187006314#1 187006325#0 187006325#2 187006325#3 187006319 28219938#0 28219938#1 28219938#2 47053172 46731893#12 28219966#2 28219966#3 92017384#1 366892710 -366892712 -72675518#1 -72675518#0 47053161 -51179858 97556745 296103900#0 296103900#1 169375105 231248727#1 -231248727#1 "/>
</vehicle>
<vehicle id="car17" type="carType0" depart="5">
<route edges="-519952415 -47053171#0 46731893#4 46731893#5 46731893#6 46731893#7 -135153345 -128197185#0 28219938#2 28219938#3 -350836847#3 -350836847#2 46731894#1 104050395#1 169375096#0 169375096#1 169375096#2 -28710275#4 -113741476#1 113741476#1 "/>
</vehicle>
<vehicle id="car18" type="carType1" depart="6">
<route edges="-28219971#1 -28219971#0 -28219903#4 -28219903#3 72675518#0 72675518#1 366892712 -366892710 296686575#0 -128197181#3 -128197181#2 -128197181#1 -128197181#0 -47053174#1 -47053174#0 "/>
</vehicle>
<vehicle id="car19" type="carType2" depart="6">
<route edges="-28219909#0 -28219926#2 -28219926#1 -28219909#9 -28219909#8 -135338114 -518823482 135626088#1 -47053169#1 -47053169#0 72667894#0 72667894#1 72667894#2 -519950582#0 -134991080#0 "/>
</vehicle>
<vehicle id="car20" type="carType0" depart="6">
<route edges="51176105 -51176105 -51179858 97556745 296103900#0 296103900#1 -334058300#5 -334058300#4 -334058300#3 128005927 28710029 -28710029 "/>
</vehicle>
<vehicle id="car21" type="carType0" depart="6">
<route edges="28219909#8 28219909#9 28219926#1 28219926#2 28219926#3 28219926#4 28219926#5 28219926#6 28219926#7 28219926#8 28710275#0 "/>
</vehicle>
<vehicle id="car22" type="carType2" depart="7">
<route edges="135644866#0 135644866#1 134991080#0 134991080#1 -46731893#0 -96041310#1 96041322 46731893#6 47053170#0 47053170#2 47053174#0 47053174#1 47053174#2 92017384#1 366892710 -366892712 -72675518#1 -72675518#0 28219903#3 28219903#4 28219971#0 47053173#0 -47053173#0 "/>
</vehicle>
<vehicle id="car23" type="carType0" depart="7">
<route edges="133980478#2 -133980478#2 -133980478#1 -97556753#0 -296103900#1 -296103900#0 -47053163 -97723906#1 -97723906#0 -97723902 104050400 196369840 28219969#0 28219969#1 28219969#2 28219969#3 -28219969#3 "/>
</vehicle>
<vehicle id="car24" type="carType0" depart="8">
<route edges="-72675518#1 -72675518#0 47053161 51176105 -233486675#1 -233486675#0 "/>
</vehicle>
<vehicle id="car25" type="carType1" depart="9">
<route edges="136202554 134991080#1 46731893#1 46731893#2 47053171#0 47053171#2 -128198790 128198790 "/>
</vehicle>
<vehicle id="car26" type="carType2" depart="9">
<route edges="519954290#1 -519954290#1 -519954290#0 128196502#0 128196502#1 128196502#2 275134824#1 -520321478 134124136 -334172554#0 -28710029 -28219930#2 "/>
</vehicle>
<vehicle id="car27" type="carType2" depart="10">
<route edges="136622132 -128197181#3 -128197181#2 -128197181#1 -128197181#0 47053174#2 -28219966#3 -28219966#2 -46731893#12 -47053172 28219938#3 -350836847#3 46731889#0 46731889#1 46731889#2 "/>
</vehicle>
<vehicle id="car28" type="carType2" depart="11">
<route edges="366892714 24888058 -28220051 -350836847#3 46731889#0 47053168#0 47053168#1 -96041313#6 -96041313#5 -96041313#4 96041313#4 "/>
</vehicle>
<vehicle id="car29" type="carType1" depart="12">
<route edges="-307590939 -169375101#1 -169375101#0 -47053176#2 -47053176#1 -47053176#0 -51176105 -47053161 72675518#0 72675518#1 366892712 -366892710 296686575#0 -128197181#3 330002931 "/>
</vehicle>
<vehicle id="car30" type="carType2" depart="12">
<route edges="gneE15 gneE13 51178648 493599811 97556746 47053165 97723906#0 97723906#1 97556745 296103900#0 296103900#1 -334058300#5 28219904#0 28219904#1 "/>
</vehicle>
<vehicle id="car31" type="carType0" depart="12">
<route edges="-47053176#1 -47053176#0 -51176105 -51179858 -97723906#1 -97723906#0 -97723902 -97556746 -493599811 46731895 493599813 28219967 -527439211 527439211 "/>
</vehicle>
<vehicle id="car32" type="carType0" depart="12">
<route edges="46731891#1 -46731891#1 51178694 -134124136 -128196499 -46731892#3 -113741474#1 -113741474#0 -169375096#1 -169375096#0 24888063#0 -46731894#1 350836847#2 46731889#0 46731889#1 46731889#2 46731889#3 -47053169#0 72667894#0 72667894#1 72667894#2 -519950582#0 -134991080#0 "/>
</vehicle>
<vehicle id="car33" type="carType1" depart="12">
<route edges="97556746 -97556746 -493599811 -51178648 gneE12 gneE14 gneE11 -113741477#2 -113741477#1 -113741474#0 169375096#2 275134824#0 275134824#1 275134824#2 275134824#3 512138123#0 512138123#1 221586756#2 221586756#3 581164403#0 581164403#1 581164403#2 581164403#3 "/>
</vehicle>
<vehicle id="car34" type="carType2" depart="13">
<route edges="-28219935#0 28219935#0 28219935#1 28219935#2 196369840 28219969#0 28219969#1 28219969#2 28219969#3 128006321 227773684#3 28219968 -227773685 "/>
</vehicle>
<vehicle id="car35" type="carType2" depart="13">
<route edges="-47053168#4 -47053168#3 -47053168#1 46731894#0 46731894#1 24888063#1 -366892707 -51178680#1 -51178680#0 -51178681#2 -51178681#1 -51178681#0 -334172554#0 -28710029 -128005927 334058300#3 334058300#4 334058300#5 169375105 231248727#1 "/>
</vehicle>
<vehicle id="car36" type="carType0" depart="14">
<route edges="187006325#2 187006325#3 187006319 28219938#0 28219938#1 128197185#0 135153345 "/>
</vehicle>
<vehicle id="car37" type="carType2" depart="15">
<route edges="-97723902 104050400 196369840 28219969#0 28219969#1 28219969#2 28219969#3 128006321 227773684#3 28219968 -227773685 "/>
</vehicle>
<vehicle id="car38" type="carType2" depart="15">
<route edges="-275134824#1 -275134824#0 -169375096#2 -169375096#1 -169375096#0 24888063#0 -46731894#1 350836847#2 350836847#3 -28219938#3 -28219938#2 -28219938#1 -28219938#0 -134990864#3 "/>
</vehicle>
<vehicle id="car39" type="carType1" depart="16">
<route edges="296103900#0 296103900#1 -334058300#5 -334058300#4 -334058300#3 128005927 28710029 51178694 -134124136 520321478 -275134824#1 -128196502#2 -128196502#1 554653915#0 554653915#1 554653915#2 "/>
</vehicle>
<vehicle id="car40" type="carType2" depart="16">
<route edges="24888061#0 24888061#1 104050381 104050395#1 169375096#0 "/>
</vehicle>
<vehicle id="car41" type="carType1" depart="16">
<route edges="47053167#0 -47053167#0 -47053168#3 -47053168#1 46731894#0 350836847#2 46731889#0 "/>
</vehicle>
<vehicle id="car42" type="carType2" depart="17">
<route edges="-97556752 -47053162#2 -47053162#1 -47053162#0 51175929#0 28219903#0 47053161 -51179858 97556745 296103900#0 296103900#1 -334058300#5 -334058300#4 -334058300#3 128005927 28710029 51178694 -134124136 520321478 275134824#2 128196501 135399059 128196500#0 553313621#1 128198788 -128198788 "/>
</vehicle>
<vehicle id="car43" type="carType0" depart="17">
<route edges="28219909#3 -47053168#5 -47053168#4 -47053168#3 -47053168#1 46731894#0 350836847#2 350836847#3 -28219938#3 "/>
</vehicle>
<vehicle id="car44" type="carType0" depart="17">
<route edges="134991080#1 -46731893#0 -72667894#1 -72667894#0 47053169#0 -46731889#3 -46731889#2 -46731889#1 47053168#0 46731894#0 46731894#1 24888063#1 -366892707 -51178680#1 -51178680#0 -51178681#2 -51178681#1 -51178681#0 -334172554#0 -28710029 -28219930#2 -28219930#1 "/>
</vehicle>
<vehicle id="car45" type="carType1" depart="18">
<route edges="28219969#2 28219969#3 128006321 227773684#3 28219968 -28219966#5 -28219966#4 -47053174#2 -47053174#1 -47053174#0 -47053170#2 -47053170#1 -46731893#6 -46731893#5 -46731893#4 47053171#0 519952415 -519952415 "/>
</vehicle>
<vehicle id="car46" type="carType1" depart="18">
<route edges="-169375096#0 24888063#0 -46731894#1 -350836847#1 -350836847#0 -51177554#0 -28219926#8 -28219926#7 28219926#7 "/>
</vehicle>
<vehicle id="car47" type="carType0" depart="18">
<route edges="-135610475 135610475 96041313#6 -47053168#1 46731894#0 350836847#2 350836847#3 -350836847#3 "/>
</vehicle>
<vehicle id="car48" type="carType1" depart="18">
<route edges="-128006553 128006550 -104050400 -97556746 -493599811 -51178648 gneE12 gneE14 gneE11 -113741477#2 -113741477#1 -113741474#0 169375096#2 275134824#0 -128196502#2 -128196502#1 554653915#0 554653915#1 554653918 "/>
</vehicle>
<vehicle id="car49" type="carType1" depart="18">
<route edges="-47053176#0 -51176105 -51179858 -97723906#1 -97723906#0 51179901#0 51179901#1 "/>
</vehicle>
<vehicle id="car50" type="carType2" depart="19">
<route edges="-136622138 136622138 -296686575#0 366892710 -366892712 -72675518#1 -72675518#0 28219903#3 28219903#4 28219971#0 -28219971#0 "/>
</vehicle>
<vehicle id="car51" type="carType1" depart="19">
<route edges="-307590944#1 -307590944#0 -307590939 -169375101#1 -169375101#0 -47053176#2 -47053176#1 -47053176#0 -51176105 -47053161 72675518#0 72675518#1 366892712 -366892710 296686575#0 -128197181#3 -128197181#2 -128197181#1 -128197181#0 -47053174#1 -47053174#0 -47053170#2 -47053170#1 -46731893#6 -46731893#5 -46731893#4 47053171#0 519952415 -519952415 "/>
</vehicle>
<vehicle id="car52" type="carType0" depart="19">
<route edges="128197181#2 -128197181#2 -128197181#1 -128197181#0 47053174#2 -28219966#3 -28219966#2 -46731893#12 -47053172 28219938#3 -350836847#3 46731889#0 47053168#0 47053168#1 47053168#3 47053168#4 47053168#5 -28219909#3 135338108#0 -135338108#0 "/>
</vehicle>
<vehicle id="car53" type="carType2" depart="20">
<route edges="290584085 -52675839#0 -133980478#1 -97556753#0 -334058300#5 -334058300#4 -334058300#3 128005927 28710029 334059476 "/>
</vehicle>
<vehicle id="car54" type="carType1" depart="20">
<route edges="-46731891#1 51178694 -134124136 -128196499 -275134823#1 -275134823#0 -28710275#4 -28710275#3 -28710275#2 28710275#2 "/>
</vehicle>
<vehicle id="car55" type="carType0" depart="20">
<route edges="-46731893#3 -46731893#1 -46731893#0 -72667894#1 -72667894#0 47053169#0 -46731889#3 -46731889#2 -46731889#1 47053168#0 46731894#0 46731894#1 24888063#1 -366892707 -51178680#1 -51178680#0 -51178681#2 -51178681#1 -51178681#0 -334172554#0 -28710029 46731896#0 135335341 "/>
</vehicle>
<vehicle id="car56" type="carType1" depart="20">
<route edges="-28219926#1 -28219926#0 -368207404#1 -135848139#1 135848139#1 "/>
</vehicle>
<vehicle id="car57" type="carType1" depart="20">
<route edges="104050389#1 366892714 24888058 -28220051 -350836847#3 46731889#0 47053168#0 47053168#1 47053168#3 47053168#4 47053168#5 -28219909#3 135338108#0 -28219909#1 -28219909#0 28219909#0 "/>
</vehicle>
<vehicle id="car58" type="carType1" depart="20">
<route edges="618306056 -618306056 -618306055#0 227773684#2 227773684#3 28219968 -28219966#5 -28219966#4 -28219966#3 -28219966#2 -46731893#12 -47053172 28219938#3 -350836847#3 -350836847#2 46731894#1 104050395#1 169375096#0 169375096#1 169375096#2 275134823#0 275134823#1 128196499 "/>
</vehicle>
<vehicle id="car59" type="carType2" depart="21">
<route edges="-135153345 -128197185#0 28219938#2 47053172 46731893#12 28219966#2 28219966#3 92017384#1 366892710 -366892712 -72675518#1 -72675518#0 47053161 51176105 233486675#2 47053164#0 -128196264 128196264 "/>
</vehicle>
<vehicle id="car60" type="carType0" depart="21">
<route edges="307590939 -307590939 -169375101#1 -169375101#0 -47053176#2 -47053176#1 -47053176#0 233486675#2 "/>
</vehicle>
<vehicle id="car61" type="carType0" depart="21">
<route edges="-28219909#8 28219909#8 28219909#9 -28219926#0 -344436919 519953991 128196503 128196502#0 128196502#1 128196502#2 275134824#1 -520321478 134124136 -334172554#0 -28710029 -128005927 334058300#3 334058300#4 334058300#5 169375105 231248727#1 -47053176#4 -47053176#3 -128196093#1 -128196093#0 "/>
</vehicle>
<vehicle id="car62" type="carType2" depart="21">
<route edges="580394362#0 580394362#1 -47053162#0 51175929#0 28219903#0 47053161 -51179858 97556745 296103900#0 296103900#1 -334058300#5 -334058300#4 -334058300#3 128005927 28710029 334059476 -334059476 "/>
</vehicle>
<vehicle id="car63" type="carType2" depart="22">
<route edges="135335341 334058300#2 128005927 28710029 51178694 -134124136 -128196499 -46731892#3 -113741474#1 -113741474#0 -169375096#1 -169375096#0 24888063#0 -46731894#1 -46731894#0 47053168#1 -47053168#1 "/>
</vehicle>
<vehicle id="car64" type="carType0" depart="22">
<route edges="-113741477#2 113741477#2 51178680#1 366892707 96041318#0 96041318#1 -24888061#1 -24888061#0 -169375092#1 28220054 "/>
</vehicle>
<vehicle id="car65" type="carType0" depart="22">
<route edges="221586756#3 581164403#0 581164403#1 581164403#2 581164403#3 581164403#4 512138122#0 512138122#1 128196262 169375104 gneE4 gneE6 231248927#1 231248927#2 231248927#3 -133980478#2 -133980478#1 -97556753#0 -296103900#1 -296103900#0 -47053163 51179858 -47053161 72675518#0 72675518#1 366892712 227773684#0 227773684#1 618306055#0 618306056 "/>
</vehicle>
<vehicle id="car66" type="carType2" depart="23">
<route edges="113741475#0 113741475#1 113741475#2 47053167#3 350836847#0 350836847#1 350836847#2 350836847#3 -28219938#3 47053172 46731893#12 28219966#2 28219966#3 92017384#1 366892710 -366892712 -72675518#1 -72675518#0 -28219903#1 -51175929#0 47053162#0 "/>
</vehicle>
<vehicle id="car67" type="carType2" depart="23">
<route edges="-231248927#2 -231248927#1 gneE7 gneE9 -46731896#1 -46731896#0 28710029 51178694 -134124136 -128196499 -275134823#1 -275134823#0 -28710275#4 -28710275#3 -28710275#2 -28710275#1 -28710275#0 -28219926#8 -28219926#7 -28219926#6 -28219926#5 "/>
</vehicle>
<vehicle id="car68" type="carType1" depart="24">
<route edges="554657066 344436919 28219926#0 -28219909#9 -28219909#8 -135338114 -518823482 135626088#1 -47053169#1 -47053169#0 72667894#0 72667894#1 72667894#2 46731893#1 -46731893#1 "/>
</vehicle>
<vehicle id="car69" type="carType2" depart="24">
<route edges="28219969#4 97556749 227773685 -28219966#5 -28219966#4 -28219966#3 -28219966#2 -46731893#12 -47053172 28219938#3 -350836847#3 -350836847#2 -350836847#1 -350836847#0 -51177554#0 -28219926#8 -28219926#7 28219926#7 "/>
</vehicle>
<vehicle id="car70" type="carType2" depart="25">
<route edges="-28219966#4 -28219966#3 -28219966#2 -46731893#12 -47053172 28219938#3 -350836847#3 -350836847#2 -350836847#1 -350836847#0 -51177554#0 28710275#0 -28710275#0 "/>
</vehicle>
<vehicle id="car71" type="carType2" depart="26">
<route edges="28219966#5 -227773685 -97556749 -28219969#4 -28219969#3 35028158 196369839 51180148 128006550 -28219935#2 "/>
</vehicle>
<vehicle id="car72" type="carType1" depart="26">
<route edges="-135644866#0 135644866#0 135644866#1 134991080#0 134991080#1 -46731893#0 -96041310#1 96041322 46731893#6 47053170#0 47053170#2 47053174#0 47053174#1 47053174#2 92017384#1 366892715 227773684#1 618306055#0 618306055#1 "/>
</vehicle>
<vehicle id="car73" type="carType0" depart="27">
<route edges="227773684#2 227773684#3 28219968 -227773685 -97556749 -28219969#4 -28219969#3 -28219969#2 -28219969#1 "/>
</vehicle>
<vehicle id="car74" type="carType1" depart="27">
<route edges="-28710029 28710029 51178694 -134124136 -128196499 -46731892#3 -113741474#1 -113741474#0 -169375096#1 -169375096#0 24888063#0 -46731894#1 350836847#2 350836847#3 -28219938#3 -28219938#2 128197185#0 135153345 -46731893#7 47053170#0 -47053170#1 "/>
</vehicle>
<vehicle id="car75" type="carType2" depart="27">
<route edges="134124136 -334172554#0 -28710029 -128005927 334058300#3 334058300#4 334058300#5 -296103900#1 -296103900#0 -47053163 -233384994 -233384993 -28219971#1 47053173#0 "/>
</vehicle>
<vehicle id="car76" type="carType2" depart="27">
<route edges="-350836847#1 350836847#1 350836847#2 350836847#3 -28219938#3 47053172 46731893#12 28219966#2 28219966#3 28219966#4 28219966#5 -227773685 -97556749 "/>
</vehicle>
<vehicle id="car77" type="carType1" depart="27">
<route edges="113741477#0 113741474#1 46731892#3 128196499 134124136 -334172554#0 -28710029 -128005927 334058300#3 334058300#4 334058300#5 -296103900#1 -296103900#0 -47053164#4 -47053164#3 -367682057#1 367682057#1 "/>
</vehicle>
<vehicle id="car78" type="carType0" depart="28">
<route edges="-128197180#0 128197180#0 128197180#1 96041313#4 96041313#5 96041313#6 -47053168#1 46731894#0 46731894#1 24888063#1 -366892707 -51178680#1 -51178680#0 -51178681#2 -51178681#1 -51178681#0 -334172554#0 -28710029 -128005927 334058300#3 334058300#4 334058300#5 169375105 231248727#1 169375099 520339356#0 520339356#1 520339356#2 307590944#0 "/>
</vehicle>
<vehicle id="car79" type="carType1" depart="28">
<route edges="128196088#1 128196088#2 367682057#1 47053164#3 47053164#4 -47053163 51179858 -47053161 72675518#0 72675518#1 366892712 -366892710 296686575#0 -128197181#3 -128197181#2 -128197181#1 -128197181#0 47053174#2 -28219966#3 -28219966#2 -46731893#12 -46731893#10 "/>
</vehicle>
<vehicle id="car80" type="carType1" depart="28">
<route edges="-47053173#0 -28219971#0 -28219903#4 -28219903#3 72675518#0 72675518#1 366892712 -366892710 296686575#0 -128197181#3 -128197181#2 -128197181#1 -128197181#0 47053174#2 -28219966#3 -28219966#2 -46731893#12 -46731893#10 "/>
</vehicle>
<vehicle id="car81" type="carType1" depart="28">
<route edges="-113741475#1 -113741472#1 -47053167#0 -47053168#3 -47053168#1 -47053168#0 46731889#1 46731889#2 "/>
</vehicle>
<vehicle id="car82" type="carType1" depart="29">
<route edges="-46731893#6 46731893#6 47053170#0 47053170#2 47053174#0 47053174#1 47053174#2 92017384#1 366892710 -366892712 -72675518#1 -72675518#0 47053161 -51179858 -97723906#1 -97723906#0 51179901#0 "/>
</vehicle>
<vehicle id="car83" type="carType1" depart="29">
<route edges="-96041322 96041322 46731893#6 47053170#0 47053170#2 47053174#0 47053174#1 47053174#2 92017384#1 366892710 -366892712 -72675518#1 -72675518#0 28219903#3 28219903#4 "/>
</vehicle>
<vehicle id="car84" type="carType2" depart="29">
<route edges="-304251470 304251470 366892709#0 366892709#1 169375104 gneE4 gneE6 231248927#1 231248927#2 231248927#3 -133980478#2 -133980478#1 -97556753#0 -296103900#1 -296103900#0 -47053163 51179858 -47053161 -28219903#1 -51175929#0 -28219970#1 -136622148#1 -136795225 136795225 "/>
</vehicle>
<vehicle id="car85" type="carType0" depart="29">
<route edges="-96041313#0 -47053169#1 -46731889#3 -46731889#2 -46731889#1 47053168#0 46731894#0 46731894#1 24888063#1 -366892707 -51178680#1 -51178680#0 -51178681#2 -51178681#1 -51178681#0 -334172554#0 -28710029 -128005927 334058300#3 334058300#4 334058300#5 169375105 231248727#1 169375099 -368207414 "/>
</vehicle>
<vehicle id="car86" type="carType0" depart="30">
<route edges="307590939 -307590939 -169375101#1 -169375101#0 -47053176#2 -47053176#1 -47053176#0 -51176105 -51179858 -97723906#1 -97723906#0 -97723902 104050400 196369840 512906526#1 28219934#0 "/>
</vehicle>
<vehicle id="car87" type="carType1" depart="30">
<route edges="-113741473#1 113741473#1 -96041312#0 -47053167#4 -51177554#0 -28219926#8 -28219926#7 -28219926#6 -28219926#5 -28219926#4 -28219926#3 28219909#0 -28219909#0 "/>
</vehicle>
<vehicle id="car88" type="carType0" depart="30">
<route edges="113741477#0 113741474#1 46731892#3 128196499 520321478 275134824#2 128196501 -128196503 -519953991 344436919 28219926#0 -28219909#9 -28219909#8 -28219909#7 -135338111#2 "/>
</vehicle>
<vehicle id="car89" type="carType0" depart="31">
<route edges="47053174#1 47053174#2 92017384#1 366892710 -366892712 -72675518#1 -72675518#0 47053161 -51179858 97556745 296103900#0 296103900#1 97556753#0 -133980478#0 136795982#1 136795980#1 -136795980#1 "/>
</vehicle>
<vehicle id="car90" type="carType1" depart="32">
<route edges="-113741469#1 -113741469#0 350836846#1 350836847#1 350836847#2 350836847#3 -28219938#3 47053172 46731893#12 28219966#2 28219966#3 92017384#1 366892715 227773684#1 227773684#2 227773684#3 "/>
</vehicle>
<vehicle id="car91" type="carType0" depart="32">
<route edges="46731893#4 46731893#5 46731893#6 46731893#7 -135153345 -128197185#0 28219938#2 28219938#3 -350836847#3 -350836847#2 46731894#1 24888063#1 -366892707 -51178680#1 gneE10 gneE15 gneE13 51178648 -51178648 "/>
</vehicle>
<vehicle id="car92" type="carType0" depart="32">
<route edges="28710275#0 28710275#1 28710275#2 28710275#3 28710275#4 275134823#0 113741477#0 113741477#1 113741477#2 gneE10 gneE15 gneE13 51178648 493599811 97556746 104050400 -128006550 -51180148 -196369839 "/>
</vehicle>
<vehicle id="car93" type="carType0" depart="32">
<route edges="187006319 -187006319 47053169#0 47053169#1 96041313#0 96041313#1 96041313#2 96041313#4 -135607184 135607184 "/>
</vehicle>
<vehicle id="car94" type="carType2" depart="33">
<route edges="-135254606 135254606 -28219930#1 -28219904#1 -28219904#0 334058300#5 -296103900#1 -296103900#0 -47053163 -97723906#1 -97723906#0 -97723902 104050400 -28219935#2 -28219935#1 "/>
</vehicle>
<vehicle id="car95" type="carType0" depart="33">
<route edges="554653915#2 -554653915#2 -554653915#1 -554653915#0 128196502#1 128196502#2 275134824#1 -520321478 134124136 -334172554#0 -28710029 46731896#0 46731896#1 gneE8 gneE5 -169375104 -128196263 221586754#0 221586754#1 "/>
</vehicle>
<vehicle id="car96" type="carType0" depart="33">
<route edges="28219909#9 -28219909#9 -28219909#8 -135338114 -518823482 135626088#1 -47053169#1 -47053169#0 187006319 28219938#0 28219938#1 28219938#2 47053172 46731893#12 28219966#2 28219966#3 28219966#4 28219966#5 -227773685 "/>
</vehicle>
<vehicle id="car97" type="carType0" depart="34">
<route edges="-128005779 128005779 187006314#0 187006314#1 187006325#0 187006325#2 187006325#3 187006319 28219938#0 28219938#1 28219938#2 47053172 46731893#12 28219966#2 28219966#3 92017384#1 366892710 -366892712 -72675518#1 -72675518#0 47053161 51176105 233486675#2 47053164#0 47053164#1 128196088#0 -128196088#0 "/>
</vehicle>
<vehicle id="car98" type="carType2" depart="35">
<route edges="-28219909#2 -135338108#0 28219909#3 -47053168#5 -47053168#4 -47053168#3 -47053168#1 46731894#0 350836847#2 -350836847#2 "/>
</vehicle>
<vehicle id="car99" type="carType1" depart="35">
<route edges="47053162#0 -47053162#0 -28219970#1 -28219970#0 28219964#0 28219964#1 -366892710 366892715 "/>
</vehicle>
<vehicle id="car100" type="carType0" depart="35">
<route edges="-128197181#0 47053174#2 -28219966#3 -28219966#2 -46731893#12 -47053172 28219938#3 -350836847#3 -350836847#2 -350836847#1 -350836847#0 -51177554#0 51177554#0 "/>
</vehicle>
<vehicle id="car101" type="carType2" depart="35">
<route edges="334058300#5 -296103900#1 -296103900#0 -47053163 51179858 -47053161 -28219903#1 -51175929#0 47053162#0 47053162#1 -47053162#1 "/>
</vehicle>
<vehicle id="car102" type="carType2" depart="35">
<route edges="169375096#1 -169375096#1 -169375096#0 24888063#0 -46731894#1 350836847#2 350836847#3 -28219938#3 -28219938#2 128197185#0 135153345 -46731893#7 -46731893#6 -46731893#5 -46731893#4 47053171#0 47053171#2 -128198790 "/>
</vehicle>
<vehicle id="car103" type="carType2" depart="36">
<route edges="113741472#1 -113741472#1 -47053167#0 -47053168#3 -47053168#1 46731894#0 "/>
</vehicle>
<vehicle id="car104" type="carType2" depart="36">
<route edges="275134824#2 275134824#3 512138123#0 "/>
</vehicle>
<vehicle id="car105" type="carType2" depart="36">
<route edges="366892710 -366892712 -72675518#1 -72675518#0 47053161 -51179858 97556745 296103900#0 296103900#1 -334058300#5 -334058300#4 -334058300#3 128005927 28710029 51178694 -134124136 520321478 275134824#2 275134824#3 512138123#0 512138123#1 221586756#2 221586756#3 581164403#0 "/>
</vehicle>
<vehicle id="car106" type="carType2" depart="37">
<route edges="-580394362#0 580394362#0 580394362#1 -47053162#0 -28219970#1 -28219970#0 28219964#0 28219964#1 -366892710 296686575#0 -128197181#3 -128197181#2 -128197181#1 -128197181#0 -47053174#1 -47053174#0 -47053170#2 -47053170#1 -46731893#6 -96041322 96041310#1 72667894#2 -519950582#0 -136202554 "/>
</vehicle>
<vehicle id="car107" type="carType0" depart="37">
<route edges="28219971#1 -28219971#1 -28219971#0 -28219903#4 28219903#4 "/>
</vehicle>
<vehicle id="car108" type="carType1" depart="37">
<route edges="104050398 28219966#1 28219966#2 28219966#3 28219966#4 28219966#5 -227773685 -97556749 -28219969#4 -28219969#3 35028158 -393483749#1 -393483749#0 "/>
</vehicle>
<vehicle id="car109" type="carType2" depart="37">
<route edges="47053164#0 -47053164#0 -47053176#0 -51176105 -51179858 -97723906#1 -97723906#0 -97723902 -97556746 -493599811 -51178648 gneE12 gneE14 gneE11 51178680#1 366892707 96041318#0 96041318#1 104050381 -46731894#1 -46731894#0 47053168#1 47053168#3 47053168#4 "/>
</vehicle>
<vehicle id="car110" type="carType2" depart="39">
<route edges="275134824#1 -520321478 134124136 334172554#1 51178681#1 51178681#2 51178680#0 gneE10 gneE15 gneE13 51178648 493599811 97556746 104050400 -128006550 -51180148 "/>
</vehicle>
<vehicle id="car111" type="carType1" depart="39">
<route edges="366892714 24888058 -28220051 -350836847#3 -350836847#2 46731894#1 24888063#1 -366892707 -51178680#1 gneE10 gneE15 gneE13 51178648 493599811 -493599811 "/>
</vehicle>
<vehicle id="car112" type="carType0" depart="39">
<route edges="196369840 -196369840 -104050400 47053165 -97723902 "/>
</vehicle>
<vehicle id="car113" type="carType2" depart="41">
<route edges="-104050389#1 104050389#1 104050398 28219966#1 28219966#2 28219966#3 28219966#4 28219966#5 -227773685 -97556749 -28219969#4 -28219969#3 -28219969#2 -28219969#1 35028035 "/>
</vehicle>
<vehicle id="car114" type="carType1" depart="41">
<route edges="28219935#1 -28219935#1 -28219935#0 97556744 28219967 -527439211 352338175#0 352338175#1 366892707 96041318#0 96041318#1 -24888061#1 -24888061#0 51176876 529785874 529785872 "/>
</vehicle>
<vehicle id="car115" type="carType2" depart="42">
<route edges="47053174#1 47053174#2 92017384#1 366892715 227773684#1 618306055#0 618306056 "/>
</vehicle>
<vehicle id="car116" type="carType1" depart="42">
<route edges="47053176#2 -47053176#2 -47053176#1 -47053176#0 -233486675#1 -233486675#0 136795449#0 "/>
</vehicle>
<vehicle id="car117" type="carType0" depart="42">