<?xml version="1.0" encoding="UTF-8"?>

<!-- generated on 03/19/19 17:53:23 by Eclipse SUMO netedit Version 1.1.0
<configuration xmlns:xsi="http://www.w3.org/2001/XMLSchema-instance" xsi:noNamespaceSchemaLocation="http://sumo.dlr.de/xsd/netconvertConfiguration.xsd">

    <input>
        <sumo-net-file value="C:\Users\doliv\Onlab\Koszeg\osm.net.xml"/>
    </input>

    <output>
        <output-file value="C:\Users\doliv\Onlab\Koszeg\osm.net.xml"/>
        <output.street-names value="true"/>
    </output>

    <processing>
        <geometry.max-grade.fix value="false"/>
        <offset.disable-normalization value="true"/>
        <lefthand value="false"/>
    </processing>

    <junctions>
        <no-turnarounds value="true"/>
        <junctions.corner-detail value="5"/>
        <junctions.limit-turn-speed value="5.5"/>
        <rectangular-lane-cut value="false"/>
    </junctions>

    <pedestrian>
        <walkingareas value="false"/>
    </pedestrian>

</configuration>
-->

<net version="1.1" junctionCornerDetail="5" limitTurnSpeed="5.50" xmlns:xsi="http://www.w3.org/2001/XMLSchema-instance" xsi:noNamespaceSchemaLocation="http://sumo.dlr.de/xsd/net_file.xsd">

    <location netOffset="-614005.76,-5234288.36" convBoundary="0.00,0.00,9163.39,17213.33" origBoundary="16.502284,47.250514,16.627742,47.446184" projParameter="+proj=utm +zone=33 +ellps=WGS84 +datum=WGS84 +units=m +no_defs"/>

    <type id="highway.bridleway" priority="1" numLanes="1" speed="2.78" allow="pedestrian" oneway="1" width="2.00"/>
    <type id="highway.bus_guideway" priority="1" numLanes="1" speed="27.78" allow="bus" oneway="1"/>
    <type id="highway.cycleway" priority="1" numLanes="1" speed="8.33" allow="bicycle" oneway="0" width="1.00"/>
    <type id="highway.footway" priority="1" numLanes="1" speed="2.78" allow="pedestrian" oneway="1" width="2.00"/>
    <type id="highway.ford" priority="1" numLanes="1" speed="2.78" allow="army" oneway="0"/>
    <type id="highway.living_street" priority="3" numLanes="1" speed="2.78" disallow="tram rail_urban rail rail_electric ship" oneway="0"/>
    <type id="highway.motorway" priority="13" numLanes="2" speed="44.44" allow="private emergency authority army vip passenger hov taxi bus coach delivery truck trailer motorcycle evehicle custom1 custom2" oneway="1"/>
    <type id="highway.motorway_link" priority="12" numLanes="1" speed="22.22" allow="private emergency authority army vip passenger hov taxi bus coach delivery truck trailer motorcycle evehicle custom1 custom2" oneway="1"/>
    <type id="highway.path" priority="1" numLanes="1" speed="2.78" allow="bicycle pedestrian" oneway="1" width="2.00"/>
    <type id="highway.pedestrian" priority="1" numLanes="1" speed="2.78" allow="pedestrian" oneway="1" width="2.00"/>
    <type id="highway.primary" priority="9" numLanes="2" speed="27.78" disallow="tram rail_urban rail rail_electric ship" oneway="0"/>
    <type id="highway.primary_link" priority="8" numLanes="1" speed="22.22" disallow="tram rail_urban rail rail_electric ship" oneway="0"/>
    <type id="highway.raceway" priority="14" numLanes="2" speed="83.33" allow="vip" oneway="0"/>
    <type id="highway.residential" priority="4" numLanes="1" speed="13.89" disallow="tram rail_urban rail rail_electric ship" oneway="0"/>
    <type id="highway.secondary" priority="7" numLanes="2" speed="27.78" disallow="tram rail_urban rail rail_electric ship" oneway="0"/>
    <type id="highway.secondary_link" priority="6" numLanes="1" speed="22.22" disallow="tram rail_urban rail rail_electric ship" oneway="0"/>
    <type id="highway.service" priority="2" numLanes="1" speed="5.56" allow="delivery bicycle pedestrian" oneway="0"/>
    <type id="highway.stairs" priority="1" numLanes="1" speed="1.39" allow="pedestrian" oneway="1" width="2.00"/>
    <type id="highway.step" priority="1" numLanes="1" speed="1.39" allow="pedestrian" oneway="1" width="2.00"/>
    <type id="highway.steps" priority="1" numLanes="1" speed="1.39" allow="pedestrian" oneway="1" width="2.00"/>
    <type id="highway.tertiary" priority="6" numLanes="1" speed="22.22" disallow="tram rail_urban rail rail_electric ship" oneway="0"/>
    <type id="highway.tertiary_link" priority="5" numLanes="1" speed="22.22" disallow="tram rail_urban rail rail_electric ship" oneway="0"/>
    <type id="highway.track" priority="1" numLanes="1" speed="5.56" disallow="tram rail_urban rail rail_electric ship" oneway="0"/>
    <type id="highway.trunk" priority="11" numLanes="2" speed="27.78" disallow="tram rail_urban rail rail_electric bicycle pedestrian ship" oneway="0"/>
    <type id="highway.trunk_link" priority="10" numLanes="1" speed="22.22" disallow="tram rail_urban rail rail_electric bicycle pedestrian ship" oneway="0"/>
    <type id="highway.unclassified" priority="5" numLanes="1" speed="13.89" disallow="tram rail_urban rail rail_electric ship" oneway="0"/>
    <type id="highway.unsurfaced" priority="1" numLanes="1" speed="8.33" disallow="tram rail_urban rail rail_electric ship" oneway="0"/>
    <type id="railway.light_rail" priority="15" numLanes="1" speed="27.78" allow="rail_urban" oneway="1"/>
    <type id="railway.preserved" priority="15" numLanes="1" speed="27.78" allow="rail" oneway="1"/>
    <type id="railway.rail" priority="15" numLanes="1" speed="83.33" allow="rail rail_electric" oneway="1"/>
    <type id="railway.subway" priority="15" numLanes="1" speed="27.78" allow="rail_urban" oneway="1"/>
    <type id="railway.tram" priority="15" numLanes="1" speed="13.89" allow="tram" oneway="1"/>

    <edge id=":1053952679_0" function="internal">
        <lane id=":1053952679_0_0" index="0" disallow="tram rail_urban rail rail_electric ship" speed="13.89" length="14.27" shape="2140.59,14775.45 2127.92,14768.88"/>
    </edge>
    <edge id=":1053952679_1" function="internal">
        <lane id=":1053952679_1_0" index="0" disallow="tram rail_urban rail rail_electric ship" speed="7.99" length="5.79" shape="2140.59,14775.45 2137.45,14773.14 2136.48,14771.51"/>
    </edge>
    <edge id=":1053952679_2" function="internal">
        <lane id=":1053952679_2_0" index="0" disallow="tram rail_urban rail rail_electric ship" speed="3.65" length="2.34" shape="2140.59,14775.45 2139.91,14774.17 2139.94,14773.28"/>
    </edge>
    <edge id=":1053952679_9" function="internal">
        <lane id=":1053952679_9_0" index="0" disallow="tram rail_urban rail rail_electric ship" speed="7.99" length="8.42" shape="2136.48,14771.51 2135.81,14770.38 2135.66,14767.18 2137.01,14763.52"/>
    </edge>
    <edge id=":1053952679_10" function="internal">
        <lane id=":1053952679_10_0" index="0" disallow="tram rail_urban rail rail_electric ship" speed="3.65" length="2.34" shape="2139.94,14773.28 2140.67,14772.76 2142.10,14772.63"/>
    </edge>
    <edge id=":1053952679_3" function="internal">
        <lane id=":1053952679_3_0" index="0" disallow="tram rail_urban rail rail_electric ship" speed="6.50" length="9.03" shape="2139.83,14765.05 2138.97,14767.37 2139.06,14769.41 2140.11,14771.16 2142.10,14772.63"/>
    </edge>
    <edge id=":1053952679_4" function="internal">
        <lane id=":1053952679_4_0" index="0" disallow="tram rail_urban rail rail_electric ship" speed="8.08" length="14.16" shape="2139.83,14765.05 2137.52,14768.18 2134.77,14769.86 2131.57,14770.09 2127.92,14768.88"/>
    </edge>
    <edge id=":1053952679_5" function="internal">
        <lane id=":1053952679_5_0" index="0" disallow="tram rail_urban rail rail_electric ship" speed="3.65" length="4.67" shape="2139.83,14765.05 2138.55,14765.72 2137.66,14765.69 2137.15,14764.96 2137.01,14763.52"/>
    </edge>
    <edge id=":1053952679_6" function="internal">
        <lane id=":1053952679_6_0" index="0" disallow="tram rail_urban rail rail_electric ship" speed="6.61" length="9.12" shape="2129.36,14766.02 2131.70,14766.79 2133.75,14766.64 2135.53,14765.55 2137.01,14763.52"/>
    </edge>
    <edge id=":1053952679_7" function="internal">
        <lane id=":1053952679_7_0" index="0" disallow="tram rail_urban rail rail_electric ship" speed="13.89" length="14.36" shape="2129.36,14766.02 2142.10,14772.63"/>
    </edge>
    <edge id=":1053952679_8" function="internal">
        <lane id=":1053952679_8_0" index="0" disallow="tram rail_urban rail rail_electric ship" speed="3.65" length="2.34" shape="2129.36,14766.02 2130.07,14767.27 2130.07,14768.16"/>
    </edge>
    <edge id=":1053952679_11" function="internal">
        <lane id=":1053952679_11_0" index="0" disallow="tram rail_urban rail rail_electric ship" speed="3.65" length="2.34" shape="2130.07,14768.16 2129.36,14768.70 2127.92,14768.88"/>
    </edge>
    <edge id=":1053952684_0" function="internal">
        <lane id=":1053952684_0_0" index="0" disallow="tram rail_urban rail rail_electric ship" speed="6.50" length="9.03" shape="2196.85,14671.40 2194.53,14670.54 2192.49,14670.63 2190.73,14671.67 2189.26,14673.66"/>
    </edge>
    <edge id=":1053952684_1" function="internal">
        <lane id=":1053952684_1_0" index="0" disallow="tram rail_urban rail rail_electric ship" speed="8.01" length="14.19" shape="2196.85,14671.40 2193.73,14669.08 2192.09,14666.32 2191.95,14663.12 2193.30,14659.47"/>
    </edge>
    <edge id=":1053952684_2" function="internal">
        <lane id=":1053952684_2_0" index="0" disallow="tram rail_urban rail rail_electric ship" speed="3.65" length="4.67" shape="2196.85,14671.40 2196.18,14670.13 2196.21,14669.23 2196.94,14668.72 2198.38,14668.59"/>
    </edge>
    <edge id=":1053952684_3" function="internal">
        <lane id=":1053952684_3_0" index="0" disallow="tram rail_urban rail rail_electric ship" speed="6.51" length="9.04" shape="2196.11,14660.99 2195.25,14663.31 2195.35,14665.35 2196.39,14667.11 2198.38,14668.59"/>
    </edge>
    <edge id=":1053952684_4" function="internal">
        <lane id=":1053952684_4_0" index="0" disallow="tram rail_urban rail rail_electric ship" speed="13.89" length="14.40" shape="2196.11,14660.99 2189.26,14673.66"/>
    </edge>
    <edge id=":1053952684_5" function="internal">
        <lane id=":1053952684_5_0" index="0" disallow="tram rail_urban rail rail_electric ship" speed="3.65" length="2.34" shape="2196.11,14660.99 2194.84,14661.67 2193.94,14661.64"/>
    </edge>
    <edge id=":1053952684_9" function="internal">
        <lane id=":1053952684_9_0" index="0" disallow="tram rail_urban rail rail_electric ship" speed="3.65" length="2.34" shape="2193.94,14661.64 2193.43,14660.91 2193.30,14659.47"/>
    </edge>
    <edge id=":1053952684_6" function="internal">
        <lane id=":1053952684_6_0" index="0" disallow="tram rail_urban rail rail_electric ship" speed="13.89" length="14.40" shape="2186.45,14672.14 2193.30,14659.47"/>
    </edge>
    <edge id=":1053952684_7" function="internal">
        <lane id=":1053952684_7_0" index="0" disallow="tram rail_urban rail rail_electric ship" speed="8.00" length="5.93" shape="2186.45,14672.14 2188.76,14669.01 2190.52,14667.97"/>
    </edge>
    <edge id=":1053952684_8" function="internal">
        <lane id=":1053952684_8_0" index="0" disallow="tram rail_urban rail rail_electric ship" speed="3.65" length="2.34" shape="2186.45,14672.14 2187.72,14671.46 2188.61,14671.49"/>
    </edge>
    <edge id=":1053952684_10" function="internal">
        <lane id=":1053952684_10_0" index="0" disallow="tram rail_urban rail rail_electric ship" speed="8.00" length="8.27" shape="2190.52,14667.97 2191.52,14667.38 2194.73,14667.24 2198.38,14668.59"/>
    </edge>
    <edge id=":1053952684_11" function="internal">
        <lane id=":1053952684_11_0" index="0" disallow="tram rail_urban rail rail_electric ship" speed="3.65" length="2.34" shape="2188.61,14671.49 2189.13,14672.22 2189.26,14673.66"/>
    </edge>
    <edge id=":1112762144_0" function="internal">
        <lane id=":1112762144_0_0" index="0" disallow="tram rail_urban rail rail_electric ship" speed="6.43" length="9.03" shape="1613.40,14786.01 1611.29,14784.70 1609.28,14784.41 1607.38,14785.13 1605.59,14786.85"/>
    </edge>
    <edge id=":1112762144_1" function="internal">
        <lane id=":1112762144_1_0" index="0" disallow="tram rail_urban rail rail_electric ship" speed="8.16" length="14.22" shape="1613.40,14786.01 1610.76,14783.11 1609.60,14780.06 1609.93,14776.86 1611.76,14773.51"/>
    </edge>
    <edge id=":1112762144_2" function="internal">
        <lane id=":1112762144_2_0" index="0" disallow="tram rail_urban rail rail_electric ship" speed="3.65" length="4.67" shape="1613.40,14786.01 1612.99,14784.62 1613.20,14783.75 1614.02,14783.40 1615.45,14783.55"/>
    </edge>
    <edge id=":1112762144_3" function="internal">
        <lane id=":1112762144_3_0" index="0" disallow="tram rail_urban rail rail_electric ship" speed="6.69" length="9.25" shape="1614.32,14775.43 1613.14,14777.59 1612.94,14779.67 1613.71,14781.65 1615.45,14783.55"/>
    </edge>
    <edge id=":1112762144_4" function="internal">
        <lane id=":1112762144_4_0" index="0" disallow="tram rail_urban rail rail_electric ship" speed="13.89" length="14.38" shape="1614.32,14775.43 1605.59,14786.85"/>
    </edge>
    <edge id=":1112762144_5" function="internal">
        <lane id=":1112762144_5_0" index="0" disallow="tram rail_urban rail rail_electric ship" speed="3.65" length="2.34" shape="1614.32,14775.43 1612.96,14775.91 1612.08,14775.75"/>
    </edge>
    <edge id=":1112762144_9" function="internal">
        <lane id=":1112762144_9_0" index="0" disallow="tram rail_urban rail rail_electric ship" speed="3.65" length="2.34" shape="1612.08,14775.75 1611.68,14774.95 1611.76,14773.51"/>
    </edge>
    <edge id=":1112762144_6" function="internal">
        <lane id=":1112762144_6_0" index="0" disallow="tram rail_urban rail rail_electric ship" speed="13.89" length="14.32" shape="1603.06,14784.89 1611.76,14773.51"/>
    </edge>
    <edge id=":1112762144_7" function="internal">
        <lane id=":1112762144_7_0" index="0" disallow="tram rail_urban rail rail_electric ship" speed="7.94" length="5.85" shape="1603.06,14784.89 1605.90,14782.15 1607.68,14781.48"/>
    </edge>
    <edge id=":1112762144_8" function="internal">
        <lane id=":1112762144_8_0" index="0" disallow="tram rail_urban rail rail_electric ship" speed="3.65" length="2.34" shape="1603.06,14784.89 1604.43,14784.43 1605.31,14784.61"/>
    </edge>
    <edge id=":1112762144_10" function="internal">
        <lane id=":1112762144_10_0" index="0" disallow="tram rail_urban rail rail_electric ship" speed="7.94" length="8.47" shape="1607.68,14781.48 1608.91,14781.02 1612.09,14781.48 1615.45,14783.55"/>
    </edge>
    <edge id=":1112762144_11" function="internal">
        <lane id=":1112762144_11_0" index="0" disallow="tram rail_urban rail rail_electric ship" speed="3.65" length="2.34" shape="1605.31,14784.61 1605.69,14785.42 1605.59,14786.85"/>
    </edge>
    <edge id=":1112762150_0" function="internal">
        <lane id=":1112762150_0_0" index="0" disallow="tram rail_urban rail rail_electric ship" speed="8.77" length="11.97" shape="2503.39,14903.46 2501.41,14902.99 2498.96,14903.47 2496.03,14904.92 2492.63,14907.32"/>
    </edge>
    <edge id=":1112762150_1" function="internal">
        <lane id=":1112762150_1_0" index="0" disallow="tram rail_urban rail rail_electric ship" speed="5.34" length="3.90" shape="2503.39,14903.46 2501.46,14902.07 2500.73,14900.73"/>
    </edge>
    <edge id=":1112762150_4" function="internal">
        <lane id=":1112762150_4_0" index="0" disallow="tram rail_urban rail rail_electric ship" speed="5.34" length="3.75" shape="2500.73,14900.73 2500.68,14900.64 2501.04,14899.17 2502.55,14897.66"/>
    </edge>
    <edge id=":1112762150_2" function="internal">
        <lane id=":1112762150_2_0" index="0" disallow="tram rail_urban rail rail_electric ship" speed="13.89" length="13.90" shape="2490.64,14904.81 2493.59,14902.80 2496.56,14901.18 2499.54,14899.59 2502.55,14897.66"/>
    </edge>
    <edge id=":1112762150_3" function="internal">
        <lane id=":1112762150_3_0" index="0" disallow="tram rail_urban rail rail_electric ship" speed="3.65" length="2.34" shape="2490.64,14904.81 2492.08,14904.69 2492.89,14905.07"/>
    </edge>
    <edge id=":1112762150_5" function="internal">
        <lane id=":1112762150_5_0" index="0" disallow="tram rail_urban rail rail_electric ship" speed="3.65" length="2.34" shape="2492.89,14905.07 2493.07,14905.95 2492.63,14907.32"/>
    </edge>
    <edge id=":1112762331_0" function="internal">
        <lane id=":1112762331_0_0" index="0" disallow="tram rail_urban rail rail_electric ship" speed="9.62" length="10.39" shape="2048.74,14309.51 2046.13,14309.84 2043.78,14310.72 2041.69,14312.16 2039.86,14314.16"/>
    </edge>
    <edge id=":1112762331_1" function="internal">
        <lane id=":1112762331_1_0" index="0" disallow="tram rail_urban rail rail_electric ship" speed="7.75" length="4.40" shape="2048.74,14309.51 2044.62,14308.99 2044.41,14308.86"/>
    </edge>
    <edge id=":1112762331_2" function="internal">
        <lane id=":1112762331_2_0" index="0" disallow="tram rail_urban rail rail_electric ship" speed="3.65" length="2.12" shape="2048.74,14309.51 2047.52,14308.73 2047.20,14308.13"/>
    </edge>
    <edge id=":1112762331_12" function="internal">
        <lane id=":1112762331_12_0" index="0" disallow="tram rail_urban rail rail_electric ship" speed="7.75" length="10.41" shape="2044.41,14308.86 2041.86,14307.27 2040.46,14304.33 2040.42,14300.18"/>
    </edge>
    <edge id=":1112762331_13" function="internal">
        <lane id=":1112762331_13_0" index="0" disallow="tram rail_urban rail rail_electric ship" speed="3.65" length="2.55" shape="2047.20,14308.13 2047.11,14307.94 2047.49,14307.13 2048.67,14306.31"/>
    </edge>
    <edge id=":1112762331_3" function="internal">
        <lane id=":1112762331_3_0" index="0" disallow="tram rail_urban rail rail_electric ship" speed="6.20" length="9.05" shape="2043.59,14300.61 2043.62,14303.14 2044.47,14304.94 2046.16,14305.99 2048.67,14306.31"/>
    </edge>
    <edge id=":1112762331_4" function="internal">
        <lane id=":1112762331_4_0" index="0" disallow="tram rail_urban rail rail_electric ship" speed="9.72" length="14.22" shape="2043.59,14300.61 2043.15,14304.25 2042.60,14307.74 2041.61,14311.05 2039.86,14314.16"/>
    </edge>
    <edge id=":1112762331_5" function="internal">
        <lane id=":1112762331_5_0" index="0" disallow="tram rail_urban rail rail_electric ship" speed="3.65" length="4.67" shape="2043.59,14300.61 2042.64,14301.69 2041.79,14301.98 2041.05,14301.47 2040.42,14300.18"/>
    </edge>
    <edge id=":1112762331_6" function="internal">
        <lane id=":1112762331_6_0" index="0" disallow="tram rail_urban rail rail_electric ship" speed="4.17" length="10.21" shape="2033.89,14305.83 2036.37,14306.13 2038.29,14305.29 2039.64,14303.30 2040.42,14300.18"/>
    </edge>
    <edge id=":1112762331_7" function="internal">
        <lane id=":1112762331_7_0" index="0" disallow="tram rail_urban rail rail_electric ship" speed="8.34" length="14.86" shape="2033.89,14305.83 2037.51,14306.55 2041.20,14306.67 2044.93,14306.49 2048.67,14306.31"/>
    </edge>
    <edge id=":1112762331_8" function="internal">
        <lane id=":1112762331_8_0" index="0" disallow="tram rail_urban rail rail_electric ship" speed="6.67" length="12.47" shape="2033.89,14305.83 2037.97,14307.52 2040.32,14309.47 2040.95,14311.68 2039.86,14314.16"/>
    </edge>
    <edge id=":1112762331_9" function="internal">
        <lane id=":1112762331_9_0" index="0" disallow="tram rail_urban rail rail_electric ship" speed="9.72" length="13.50" shape="2036.74,14312.99 2038.49,14309.99 2039.45,14306.94 2039.99,14303.71 2040.42,14300.18"/>
    </edge>
    <edge id=":1112762331_10" function="internal">
        <lane id=":1112762331_10_0" index="0" disallow="tram rail_urban rail rail_electric ship" speed="11.17" length="14.17" shape="2036.74,14312.99 2039.32,14310.12 2042.17,14308.05 2045.29,14306.78 2048.67,14306.31"/>
    </edge>
    <edge id=":1112762331_11" function="internal">
        <lane id=":1112762331_11_0" index="0" disallow="tram rail_urban rail rail_electric ship" speed="3.70" length="3.00" shape="2036.74,14312.99 2037.96,14312.11 2038.89,14312.01 2039.27,14312.43"/>
    </edge>
    <edge id=":1112762331_14" function="internal">
        <lane id=":1112762331_14_0" index="0" disallow="tram rail_urban rail rail_electric ship" speed="3.70" length="1.86" shape="2039.27,14312.43 2039.52,14312.70 2039.86,14314.16"/>
    </edge>
    <edge id=":1112762350_0" function="internal">
        <lane id=":1112762350_0_0" index="0" disallow="tram rail_urban rail rail_electric ship" speed="13.89" length="14.39" shape="1663.90,14951.95 1650.84,14945.90"/>
    </edge>
    <edge id=":1112762350_1" function="internal">
        <lane id=":1112762350_1_0" index="0" disallow="tram rail_urban rail rail_electric ship" speed="7.69" length="5.89" shape="1663.90,14951.95 1660.38,14949.59 1659.54,14948.17"/>
    </edge>
    <edge id=":1112762350_2" function="internal">
        <lane id=":1112762350_2_0" index="0" disallow="tram rail_urban rail rail_electric ship" speed="3.65" length="2.34" shape="1663.90,14951.95 1663.16,14950.71 1663.15,14949.82"/>
    </edge>
    <edge id=":1112762350_9" function="internal">
        <lane id=":1112762350_9_0" index="0" disallow="tram rail_urban rail rail_electric ship" speed="7.69" length="9.11" shape="1659.54,14948.17 1658.72,14946.79 1658.90,14943.52 1660.93,14939.81"/>
    </edge>
    <edge id=":1112762350_10" function="internal">
        <lane id=":1112762350_10_0" index="0" disallow="tram rail_urban rail rail_electric ship" speed="3.65" length="2.34" shape="1663.15,14949.82 1663.85,14949.27 1665.28,14949.07"/>
    </edge>
    <edge id=":1112762350_3" function="internal">
        <lane id=":1112762350_3_0" index="0" disallow="tram rail_urban rail rail_electric ship" speed="6.12" length="9.06" shape="1663.49,14941.73 1662.26,14943.98 1662.15,14945.95 1663.16,14947.64 1665.28,14949.07"/>
    </edge>
    <edge id=":1112762350_4" function="internal">
        <lane id=":1112762350_4_0" index="0" disallow="tram rail_urban rail rail_electric ship" speed="8.84" length="14.53" shape="1663.49,14941.73 1660.63,14944.74 1657.57,14946.44 1654.31,14946.83 1650.84,14945.90"/>
    </edge>
    <edge id=":1112762350_5" function="internal">
        <lane id=":1112762350_5_0" index="0" disallow="tram rail_urban rail rail_electric ship" speed="3.65" length="4.67" shape="1663.49,14941.73 1662.13,14942.21 1661.25,14942.05 1660.85,14941.25 1660.93,14939.81"/>
    </edge>
    <edge id=":1112762350_6" function="internal">
        <lane id=":1112762350_6_0" index="0" disallow="tram rail_urban rail rail_electric ship" speed="7.49" length="10.18" shape="1652.13,14942.98 1654.49,14943.58 1656.74,14943.25 1658.89,14942.00 1660.93,14939.81"/>
    </edge>
    <edge id=":1112762350_7" function="internal">
        <lane id=":1112762350_7_0" index="0" disallow="tram rail_urban rail rail_electric ship" speed="13.89" length="14.49" shape="1652.13,14942.98 1665.28,14949.07"/>
    </edge>
    <edge id=":1112762350_8" function="internal">
        <lane id=":1112762350_8_0" index="0" disallow="tram rail_urban rail rail_electric ship" speed="3.65" length="2.34" shape="1652.13,14942.98 1652.91,14944.19 1652.95,14945.09"/>
    </edge>
    <edge id=":1112762350_11" function="internal">
        <lane id=":1112762350_11_0" index="0" disallow="tram rail_urban rail rail_electric ship" speed="3.65" length="2.34" shape="1652.95,14945.09 1652.26,14945.66 1650.84,14945.90"/>
    </edge>
    <edge id=":1112762387_0" function="internal">
        <lane id=":1112762387_0_0" index="0" disallow="tram rail_urban rail rail_electric ship" speed="11.11" length="9.12" shape="2560.40,14928.57 2560.19,14931.24 2560.42,14933.10 2560.64,14934.97 2560.41,14937.64"/>
    </edge>
    <edge id=":1112762387_1" function="internal">
        <lane id=":1112762387_1_0" index="0" disallow="tram rail_urban rail rail_electric ship" speed="5.72" length="4.68" shape="2560.40,14928.57 2559.68,14930.62 2558.41,14931.72 2557.60,14931.78"/>
    </edge>
    <edge id=":1112762387_4" function="internal">
        <lane id=":1112762387_4_0" index="0" disallow="tram rail_urban rail rail_electric ship" speed="5.72" length="3.51" shape="2557.60,14931.78 2556.59,14931.86 2554.22,14931.04"/>
    </edge>
    <edge id=":1112762387_2" function="internal">
        <lane id=":1112762387_2_0" index="0" disallow="tram rail_urban rail rail_electric ship" speed="6.59" length="7.31" shape="2557.26,14937.07 2557.35,14935.13 2556.88,14933.48 2555.84,14932.11 2554.22,14931.04"/>
    </edge>
    <edge id=":1112762387_3" function="internal">
        <lane id=":1112762387_3_0" index="0" disallow="tram rail_urban rail rail_electric ship" speed="3.65" length="2.17" shape="2557.26,14937.07 2558.26,14936.03 2558.96,14935.83"/>
    </edge>
    <edge id=":1112762387_5" function="internal">
        <lane id=":1112762387_5_0" index="0" disallow="tram rail_urban rail rail_electric ship" speed="3.65" length="2.50" shape="2558.96,14935.83 2559.12,14935.78 2559.83,14936.32 2560.41,14937.64"/>
    </edge>
    <edge id=":1112762419_0" function="internal">
        <lane id=":1112762419_0_0" index="0" disallow="tram rail_urban rail rail_electric ship" speed="6.51" length="8.92" shape="1720.65,14874.68 1718.49,14873.54 1716.48,14873.36 1714.61,14874.13 1712.88,14875.86"/>
    </edge>
    <edge id=":1112762419_1" function="internal">
        <lane id=":1112762419_1_0" index="0" disallow="tram rail_urban rail rail_electric ship" speed="13.89" length="14.16" shape="1720.65,14874.68 1709.47,14866.00"/>
    </edge>
    <edge id=":1112762419_2" function="internal">
        <lane id=":1112762419_2_0" index="0" disallow="tram rail_urban rail rail_electric ship" speed="3.65" length="2.34" shape="1720.65,14874.68 1720.14,14873.33 1720.29,14872.45"/>
    </edge>
    <edge id=":1112762419_9" function="internal">
        <lane id=":1112762419_9_0" index="0" disallow="tram rail_urban rail rail_electric ship" speed="3.65" length="2.34" shape="1720.29,14872.45 1721.08,14872.03 1722.52,14872.09"/>
    </edge>
    <edge id=":1112762419_3" function="internal">
        <lane id=":1112762419_3_0" index="0" disallow="tram rail_urban rail rail_electric ship" speed="13.89" length="13.94" shape="1711.51,14863.54 1722.52,14872.09"/>
    </edge>
    <edge id=":1112762419_4" function="internal">
        <lane id=":1112762419_4_0" index="0" disallow="tram rail_urban rail rail_electric ship" speed="8.09" length="5.52" shape="1711.51,14863.54 1714.05,14866.35 1714.64,14867.99"/>
    </edge>
    <edge id=":1112762419_5" function="internal">
        <lane id=":1112762419_5_0" index="0" disallow="tram rail_urban rail rail_electric ship" speed="3.65" length="2.34" shape="1711.51,14863.54 1711.92,14864.92 1711.72,14865.79"/>
    </edge>
    <edge id=":1112762419_10" function="internal">
        <lane id=":1112762419_10_0" index="0" disallow="tram rail_urban rail rail_electric ship" speed="8.09" length="8.46" shape="1714.64,14867.99 1715.12,14869.33 1714.73,14872.50 1712.88,14875.86"/>
    </edge>
    <edge id=":1112762419_11" function="internal">
        <lane id=":1112762419_11_0" index="0" disallow="tram rail_urban rail rail_electric ship" speed="3.65" length="2.34" shape="1711.72,14865.79 1710.90,14866.15 1709.47,14866.00"/>
    </edge>
    <edge id=":1112762419_6" function="internal">
        <lane id=":1112762419_6_0" index="0" disallow="tram rail_urban rail rail_electric ship" speed="6.62" length="9.01" shape="1710.32,14873.94 1711.52,14871.77 1711.78,14869.73 1711.09,14867.80 1709.47,14866.00"/>
    </edge>
    <edge id=":1112762419_7" function="internal">
        <lane id=":1112762419_7_0" index="0" disallow="tram rail_urban rail rail_electric ship" speed="8.00" length="14.02" shape="1710.32,14873.94 1713.03,14871.22 1715.97,14870.01 1719.13,14870.30 1722.52,14872.09"/>
    </edge>
    <edge id=":1112762419_8" function="internal">
        <lane id=":1112762419_8_0" index="0" disallow="tram rail_urban rail rail_electric ship" speed="3.65" length="4.67" shape="1710.32,14873.94 1711.68,14873.46 1712.56,14873.62 1712.96,14874.42 1712.88,14875.86"/>
    </edge>
    <edge id=":1129481596_0" function="internal">
        <lane id=":1129481596_0_0" index="0" disallow="tram rail_urban rail rail_electric ship" speed="5.56" length="13.28" shape="3322.73,16263.64 3319.72,16261.96 3316.63,16261.29 3313.48,16261.64 3310.25,16262.99"/>
    </edge>
    <edge id=":1129481596_1" function="internal">
        <lane id=":1129481596_1_0" index="0" disallow="tram rail_urban rail rail_electric ship" speed="5.56" length="17.09" shape="3322.73,16263.64 3309.34,16253.03"/>
    </edge>
    <edge id=":1129481596_2" function="internal">
        <lane id=":1129481596_2_0" index="0" disallow="tram rail_urban rail rail_electric ship" speed="5.56" length="15.58" shape="3322.73,16263.64 3319.52,16260.50 3318.47,16257.37 3319.57,16254.27 3322.83,16251.18"/>
    </edge>
    <edge id=":1129481596_3" function="internal">
        <lane id=":1129481596_3_0" index="0" disallow="tram rail_urban rail rail_electric ship" speed="3.65" length="4.67" shape="3322.73,16263.64 3322.24,16262.29 3322.39,16261.41 3323.18,16261.00 3324.62,16261.07"/>
    </edge>
    <edge id=":1129481596_4" function="internal">
        <lane id=":1129481596_4_0" index="0" disallow="tram rail_urban rail rail_electric ship" speed="5.56" length="9.10" shape="3324.69,16253.79 3322.78,16255.59 3322.14,16257.40 3322.75,16259.23 3324.62,16261.07"/>
    </edge>
    <edge id=":1129481596_5" function="internal">