<configuration>
    <input>
       <net-file value="test2.net.xml"/>
       <route-files value="gen2.rou.xml"/>
    </input>
</configuration>