<routes>
<vType id="carType0" length="5" maxSpeed="44.24" accel="2.43" decel="4.19" speedDev="0.2" sigma="0.24"/>
<vType id="carType1" length="7" maxSpeed="47.2" accel="2.62" decel="4.94" speedDev="0.2" sigma="0.17"/>
<vType id="carType2" length="8" maxSpeed="55.52" accel="2.21" decel="5.32" speedDev="0.2" sigma="0.11"/>
<flow id="car0" type="carType1" from="-gneE21" to="-gneE37" begin="0" end="0" number="1"/>
<flow id="car1" type="carType2" from="-gneE18" to="-gneE37" begin="3" end="3" number="1"/>
<flow id="car2" type="carType1" from="-gneE42" to="gneE44" begin="4" end="4" number="1"/>
<flow id="car3" type="carType1" from="gneE45" to="gneE49" begin="4" end="4" number="1"/>
<flow id="car4" type="carType2" from="-gneE8" to="-gneE50" begin="5" end="5" number="1"/>
<flow id="car5" type="carType1" from="-gneE13" to="gneE37" begin="6" end="6" number="1"/>
<flow id="car6" type="carType0" from="gneE45" to="gneE30" begin="9" end="9" number="1"/>
<flow id="car7" type="carType0" from="gneE21" to="bottomrightU" begin="9" end="9" number="1"/>
<flow id="car8" type="carType1" from="gneE28" to="-gneE50" begin="9" end="9" number="1"/>
<flow id="car9" type="carType0" from="gneE50" to="gneE50" begin="10" end="10" number="1"/>
<flow id="car10" type="carType2" from="gneE44" to="gneE35" begin="10" end="10" number="1"/>
<flow id="car11" type="carType1" from="-gneE37" to="bottomleftU" begin="11" end="11" number="1"/>
<flow id="car12" type="carType0" from="gneE21" to="-gneE8" begin="11" end="11" number="1"/>
<flow id="car13" type="carType1" from="-gneE33" to="-gneE29" begin="14" end="14" number="1"/>
<flow id="car14" type="carType0" from="-gneE7" to="-gneE50" begin="14" end="14" number="1"/>
<flow id="car15" type="carType0" from="-gneE18" to="-gneE28" begin="15" end="15" number="1"/>
<flow id="car16" type="carType2" from="bottomleftU" to="gneE50" begin="17" end="17" number="1"/>
<flow id="car17" type="carType1" from="gneE34" to="topleftR" begin="19" end="19" number="1"/>
<flow id="car18" type="carType0" from="-gneE44" to="bottomrightL" begin="22" end="22" number="1"/>
<flow id="car19" type="carType2" from="gneE50" to="-gneE29" begin="23" end="23" number="1"/>
<flow id="car20" type="carType2" from="bottomrightL" to="bottomrightU" begin="24" end="24" number="1"/>
<flow id="car21" type="carType2" from="-gneE18" to="gneE30" begin="25" end="25" number="1"/>
<flow id="car22" type="carType2" from="bottomrightL" to="gneE29" begin="31" end="31" number="1"/>
<flow id="car23" type="carType0" from="gneE34" to="gneE48" begin="33" end="33" number="1"/>
<flow id="car24" type="carType1" from="-gneE21" to="gneE49" begin="33" end="33" number="1"/>
<flow id="car25" type="carType2" from="gneE35" to="-gneE42" begin="34" end="34" number="1"/>
<flow id="car26" type="carType0" from="topleftR" to="toprightL" begin="34" end="34" number="1"/>
<flow id="car27" type="carType2" from="gneE18" to="gneE30" begin="37" end="37" number="1"/>
<flow id="car28" type="carType2" from="bottomrightU" to="gneE48" begin="37" end="37" number="1"/>
<flow id="car29" type="carType2" from="-gneE49" to="-gneE43" begin="38" end="38" number="1"/>
<flow id="car30" type="carType0" from="gneE18" to="gneE45" begin="39" end="39" number="1"/>
<flow id="car31" type="carType0" from="-gneE51" to="-gneE21" begin="40" end="40" number="1"/>
<flow id="car32" type="carType1" from="bottomleftR" to="gneE46" begin="40" end="40" number="1"/>
<flow id="car33" type="carType1" from="gneE48" to="-gneE51" begin="43" end="43" number="1"/>
<flow id="car34" type="carType0" from="-gneE48" to="gneE9" begin="43" end="43" number="1"/>
<flow id="car35" type="carType1" from="gneE51" to="-gneE27" begin="44" end="44" number="1"/>
<flow id="car36" type="carType1" from="gneE48" to="-gneE13" begin="44" end="44" number="1"/>
<flow id="car37" type="carType1" from="gneE51" to="gneE43" begin="44" end="44" number="1"/>
<flow id="car38" type="carType1" from="gneE8" to="-gneE44" begin="46" end="46" number="1"/>
<flow id="car39" type="carType1" from="-gneE44" to="-gneE49" begin="46" end="46" number="1"/>
<flow id="car40" type="carType2" from="-gneE8" to="-gneE27" begin="47" end="47" number="1"/>
<flow id="car41" type="carType2" from="-gneE49" to="-gneE37" begin="47" end="47" number="1"/>
<flow id="car42" type="carType1" from="gneE37" to="gneE27" begin="50" end="50" number="1"/>
<flow id="car43" type="carType1" from="gneE48" to="-gneE44" begin="51" end="51" number="1"/>
<flow id="car44" type="carType1" from="-gneE48" to="gneE45" begin="52" end="52" number="1"/>
<flow id="car45" type="carType0" from="gneE22" to="gneE27" begin="52" end="52" number="1"/>
<flow id="car46" type="carType0" from="toprightD" to="-gneE29" begin="53" end="53" number="1"/>
<flow id="car47" type="carType0" from="gneE27" to="-gneE28" begin="53" end="53" number="1"/>
<flow id="car48" type="carType0" from="toprightD" to="-gneE50" begin="54" end="54" number="1"/>
<flow id="car49" type="carType2" from="bottomrightU" to="gneE42" begin="54" end="54" number="1"/>
<flow id="car50" type="carType1" from="-gneE28" to="gneE35" begin="56" end="56" number="1"/>
<flow id="car51" type="carType2" from="gneE28" to="gneE49" begin="57" end="57" number="1"/>
<flow id="car52" type="carType1" from="gneE43" to="gneE50" begin="60" end="60" number="1"/>
<flow id="car53" type="carType1" from="gneE28" to="bottomleftU" begin="61" end="61" number="1"/>
<flow id="car54" type="carType0" from="gneE28" to="toprightL" begin="61" end="61" number="1"/>
<flow id="car55" type="carType2" from="-gneE51" to="gneE50" begin="62" end="62" number="1"/>
<flow id="car56" type="carType2" from="-gneE7" to="-gneE13" begin="62" end="62" number="1"/>
<flow id="car57" type="carType0" from="gneE21" to="bottomleftU" begin="63" end="63" number="1"/>
<flow id="car58" type="carType1" from="-gneE37" to="gneE44" begin="64" end="64" number="1"/>
<flow id="car59" type="carType1" from="-gneE18" to="gneE9" begin="65" end="65" number="1"/>
<flow id="car60" type="carType0" from="topleftR" to="gneE37" begin="65" end="65" number="1"/>
<flow id="car61" type="carType2" from="topleftR" to="toprightL" begin="65" end="65" number="1"/>
<flow id="car62" type="carType1" from="gneE37" to="-gneE21" begin="66" end="66" number="1"/>
<flow id="car63" type="carType2" from="-gneE42" to="gneE30" begin="69" end="69" number="1"/>
<flow id="car64" type="carType2" from="gneE48" to="gneE8" begin="72" end="72" number="1"/>
<flow id="car65" type="carType2" from="-gneE13" to="bottomrightL" begin="72" end="72" number="1"/>
<flow id="car66" type="carType1" from="bottomleftR" to="gneE21" begin="73" end="73" number="1"/>
<flow id="car67" type="carType2" from="gneE35" to="-gneE21" begin="74" end="74" number="1"/>
<flow id="car68" type="carType0" from="-gneE8" to="-gneE28" begin="74" end="74" number="1"/>
<flow id="car69" type="carType2" from="-gneE7" to="gneE44" begin="74" end="74" number="1"/>
<flow id="car70" type="carType0" from="-gneE50" to="toprightD" begin="77" end="77" number="1"/>
<flow id="car71" type="carType1" from="gneE34" to="gneE51" begin="79" end="79" number="1"/>
<flow id="car72" type="carType2" from="toprightD" to="-gneE51" begin="79" end="79" number="1"/>
<flow id="car73" type="carType2" from="gneE49" to="-gneE43" begin="80" end="80" number="1"/>
<flow id="car74" type="carType1" from="-gneE51" to="-gneE50" begin="80" end="80" number="1"/>
<flow id="car75" type="carType1" from="-gneE8" to="-gneE13" begin="81" end="81" number="1"/>
<flow id="car76" type="carType1" from="-gneE43" to="-gneE29" begin="81" end="81" number="1"/>
<flow id="car77" type="carType0" from="bottomrightU" to="toprightL" begin="81" end="81" number="1"/>
<flow id="car78" type="carType0" from="toprightL" to="-gneE28" begin="81" end="81" number="1"/>
<flow id="car79" type="carType0" from="gneE51" to="-gneE34" begin="82" end="82" number="1"/>
<flow id="car80" type="carType0" from="-gneE42" to="bottomleftR" begin="84" end="84" number="1"/>
<flow id="car81" type="carType2" from="-gneE42" to="bottomleftU" begin="84" end="84" number="1"/>
<flow id="car82" type="carType0" from="gneE27" to="bottomleftR" begin="85" end="85" number="1"/>
<flow id="car83" type="carType2" from="-gneE28" to="-gneE18" begin="87" end="87" number="1"/>
<flow id="car84" type="carType1" from="bottomleftR" to="-gneE18" begin="89" end="89" number="1"/>
<flow id="car85" type="carType1" from="-gneE44" to="-gneE13" begin="90" end="90" number="1"/>
<flow id="car86" type="carType2" from="gneE50" to="topleftR" begin="91" end="91" number="1"/>
<flow id="car87" type="carType0" from="gneE42" to="-gneE29" begin="93" end="93" number="1"/>
<flow id="car88" type="carType0" from="gneE21" to="gneE51" begin="94" end="94" number="1"/>
<flow id="car89" type="carType1" from="-gneE48" to="-gneE51" begin="96" end="96" number="1"/>
<flow id="car90" type="carType0" from="-gneE42" to="gneE42" begin="97" end="97" number="1"/>
<flow id="car91" type="carType1" from="gneE42" to="-gneE21" begin="97" end="97" number="1"/>
<flow id="car92" type="carType2" from="gneE46" to="gneE45" begin="99" end="99" number="1"/>
<flow id="car93" type="carType0" from="-gneE7" to="-gneE33" begin="100" end="100" number="1"/>
<flow id="car94" type="carType0" from="-gneE33" to="gneE9" begin="100" end="100" number="1"/>
<flow id="car95" type="carType2" from="-gneE29" to="-gneE8" begin="101" end="101" number="1"/>
<flow id="car96" type="carType0" from="gneE8" to="gneE46" begin="102" end="102" number="1"/>
<flow id="car97" type="carType1" from="-gneE28" to="-gneE49" begin="102" end="102" number="1"/>
<flow id="car98" type="carType1" from="bottomrightU" to="-gneE8" begin="104" end="104" number="1"/>
<flow id="car99" type="carType1" from="-gneE8" to="gneE28" begin="104" end="104" number="1"/>
<flow id="car100" type="carType0" from="-gneE7" to="-gneE49" begin="104" end="104" number="1"/>
<flow id="car101" type="carType0" from="toprightL" to="gneE44" begin="105" end="105" number="1"/>
<flow id="car102" type="carType1" from="bottomleftU" to="toprightL" begin="106" end="106" number="1"/>
<flow id="car103" type="carType2" from="gneE34" to="-gneE45" begin="107" end="107" number="1"/>
<flow id="car104" type="carType0" from="-gneE13" to="gneE27" begin="107" end="107" number="1"/>
<flow id="car105" type="carType1" from="-gneE13" to="gneE27" begin="108" end="108" number="1"/>
<flow id="car106" type="carType1" from="topleftD" to="-gneE29" begin="108" end="108" number="1"/>
<flow id="car107" type="carType2" from="-gneE50" to="gneE37" begin="109" end="109" number="1"/>
<flow id="car108" type="carType1" from="-gneE13" to="gneE46" begin="113" end="113" number="1"/>
<flow id="car109" type="carType0" from="gneE35" to="gneE42" begin="115" end="115" number="1"/>
<flow id="car110" type="carType2" from="gneE51" to="-gneE45" begin="116" end="116" number="1"/>
<flow id="car111" type="carType1" from="-gneE28" to="-gneE28" begin="117" end="117" number="1"/>
<flow id="car112" type="carType0" from="gneE48" to="gneE30" begin="118" end="118" number="1"/>
<flow id="car113" type="carType2" from="toprightD" to="gneE22" begin="119" end="119" number="1"/>
<flow id="car114" type="carType2" from="-gneE7" to="-gneE37" begin="119" end="119" number="1"/>
<flow id="car115" type="carType1" from="bottomrightL" to="gneE9" begin="120" end="120" number="1"/>
<flow id="car116" type="carType1" from="-gneE8" to="gneE45" begin="120" end="120" number="1"/>
<flow id="car117" type="carType0" from="gneE22" to="-gneE37" begin="123" end="123" number="1"/>
<flow id="car118" type="carType0" from="-gneE51" to="-gneE50" begin="125" end="125" number="1"/>
<flow id="car119" type="carType0" from="toprightD" to="bottomrightU" begin="125" end="125" number="1"/>
<flow id="car120" type="carType2" from="-gneE49" to="-gneE18" begin="125" end="125" number="1"/>
<flow id="car121" type="carType1" from="-gneE43" to="gneE34" begin="125" end="125" number="1"/>
<flow id="car122" type="carType0" from="-gneE8" to="gneE43" begin="126" end="126" number="1"/>
<flow id="car123" type="carType2" from="-gneE21" to="gneE28" begin="126" end="126" number="1"/>
<flow id="car124" type="carType0" from="gneE18" to="-gneE49" begin="127" end="127" number="1"/>
<flow id="car125" type="carType1" from="gneE8" to="toprightL" begin="128" end="128" number="1"/>
<flow id="car126" type="carType1" from="-gneE45" to="-gneE43" begin="128" end="128" number="1"/>
<flow id="car127" type="carType0" from="-gneE43" to="-gneE50" begin="128" end="128" number="1"/>
<flow id="car128" type="carType2" from="-gneE21" to="-gneE28" begin="129" end="129" number="1"/>
<flow id="car129" type="carType2" from="-gneE33" to="gneE22" begin="130" end="130" number="1"/>
<flow id="car130" type="carType0" from="bottomleftU" to="-gneE51" begin="130" end="130" number="1"/>
<flow id="car131" type="carType0" from="gneE46" to="gneE27" begin="133" end="133" number="1"/>
<flow id="car132" type="carType0" from="-gneE27" to="gneE49" begin="135" end="135" number="1"/>
<flow id="car133" type="carType2" from="-gneE48" to="gneE28" begin="135" end="135" number="1"/>
<flow id="car134" type="carType0" from="gneE44" to="-gneE27" begin="136" end="136" number="1"/>
<flow id="car135" type="carType0" from="-gneE49" to="-gneE42" begin="136" end="136" number="1"/>
<flow id="car136" type="carType0" from="-gneE37" to="-gneE44" begin="136" end="136" number="1"/>
<flow id="car137" type="carType1" from="toprightD" to="-gneE48" begin="140" end="140" number="1"/>
<flow id="car138" type="carType0" from="-gneE29" to="gneE42" begin="140" end="140" number="1"/>
<flow id="car139" type="carType2" from="-gneE28" to="-gneE13" begin="142" end="142" number="1"/>
<flow id="car140" type="carType2" from="-gneE21" to="gneE8" begin="143" end="143" number="1"/>
<flow id="car141" type="carType2" from="gneE42" to="-gneE18" begin="144" end="144" number="1"/>
<flow id="car142" type="carType1" from="-gneE27" to="-gneE50" begin="145" end="145" number="1"/>
<flow id="car143" type="carType2" from="-gneE37" to="-gneE51" begin="147" end="147" number="1"/>
<flow id="car144" type="carType2" from="gneE42" to="bottomleftR" begin="148" end="148" number="1"/>
<flow id="car145" type="carType0" from="gneE29" to="-gneE28" begin="149" end="149" number="1"/>
<flow id="car146" type="carType0" from="-gneE27" to="-gneE51" begin="149" end="149" number="1"/>
<flow id="car147" type="carType0" from="toprightD" to="gneE27" begin="152" end="152" number="1"/>
<flow id="car148" type="carType2" from="-gneE28" to="gneE48" begin="152" end="152" number="1"/>
<flow id="car149" type="carType0" from="gneE9" to="gneE43" begin="154" end="154" number="1"/>
<flow id="car150" type="carType2" from="gneE44" to="-gneE34" begin="157" end="157" number="1"/>
<flow id="car151" type="carType0" from="bottomrightL" to="gneE45" begin="157" end="157" number="1"/>
<flow id="car152" type="carType0" from="bottomleftU" to="topleftR" begin="158" end="158" number="1"/>
<flow id="car153" type="carType1" from="-gneE51" to="-gneE13" begin="160" end="160" number="1"/>
<flow id="car154" type="carType0" from="bottomleftU" to="gneE45" begin="160" end="160" number="1"/>
<flow id="car155" type="carType1" from="gneE34" to="-gneE43" begin="160" end="160" number="1"/>
<flow id="car156" type="carType2" from="gneE48" to="-gneE51" begin="161" end="161" number="1"/>
<flow id="car157" type="carType1" from="gneE46" to="gneE44" begin="161" end="161" number="1"/>
<flow id="car158" type="carType0" from="-gneE8" to="-gneE51" begin="163" end="163" number="1"/>
<flow id="car159" type="carType0" from="-gneE33" to="gneE45" begin="164" end="164" number="1"/>
<flow id="car160" type="carType0" from="gneE22" to="gneE28" begin="164" end="164" number="1"/>
<flow id="car161" type="carType0" from="-gneE49" to="gneE46" begin="165" end="165" number="1"/>
<flow id="car162" type="carType2" from="-gneE49" to="-gneE33" begin="166" end="166" number="1"/>
<flow id="car163" type="carType1" from="gneE22" to="gneE49" begin="169" end="169" number="1"/>
<flow id="car164" type="carType1" from="bottomrightU" to="gneE8" begin="170" end="170" number="1"/>
<flow id="car165" type="carType2" from="-gneE45" to="gneE21" begin="171" end="171" number="1"/>
<flow id="car166" type="carType0" from="gneE30" to="-gneE27" begin="172" end="172" number="1"/>
<flow id="car167" type="carType1" from="bottomrightU" to="-gneE21" begin="172" end="172" number="1"/>
<flow id="car168" type="carType0" from="bottomleftU" to="topleftR" begin="174" end="174" number="1"/>
<flow id="car169" type="carType2" from="-gneE34" to="gneE44" begin="175" end="175" number="1"/>
<flow id="car170" type="carType2" from="-gneE45" to="-gneE42" begin="177" end="177" number="1"/>
<flow id="car171" type="carType2" from="gneE28" to="gneE43" begin="178" end="178" number="1"/>
<flow id="car172" type="carType0" from="gneE29" to="gneE27" begin="178" end="178" number="1"/>
<flow id="car173" type="carType0" from="-gneE34" to="gneE44" begin="179" end="179" number="1"/>
<flow id="car174" type="carType0" from="topleftD" to="-gneE34" begin="180" end="180" number="1"/>
<flow id="car175" type="carType1" from="gneE27" to="gneE42" begin="181" end="181" number="1"/>
<flow id="car176" type="carType1" from="-gneE8" to="toprightD" begin="181" end="181" number="1"/>
<flow id="car177" type="carType0" from="gneE28" to="gneE49" begin="182" end="182" number="1"/>
<flow id="car178" type="carType1" from="gneE46" to="gneE37" begin="182" end="182" number="1"/>
<flow id="car179" type="carType0" from="-gneE13" to="gneE34" begin="184" end="184" number="1"/>
<flow id="car180" type="carType1" from="-gneE37" to="gneE49" begin="185" end="185" number="1"/>
<flow id="car181" type="carType0" from="gneE8" to="-gneE28" begin="185" end="185" number="1"/>
<flow id="car182" type="carType0" from="gneE21" to="bottomrightL" begin="186" end="186" number="1"/>
<flow id="car183" type="carType0" from="gneE37" to="toprightL" begin="187" end="187" number="1"/>
<flow id="car184" type="carType1" from="-gneE50" to="gneE34" begin="187" end="187" number="1"/>
<flow id="car185" type="carType0" from="-gneE34" to="gneE8" begin="188" end="188" number="1"/>
<flow id="car186" type="carType1" from="gneE43" to="-gneE44" begin="189" end="189" number="1"/>
<flow id="car187" type="carType1" from="gneE46" to="gneE8" begin="190" end="190" number="1"/>
<flow id="car188" type="carType0" from="gneE22" to="gneE48" begin="190" end="190" number="1"/>
<flow id="car189" type="carType2" from="-gneE21" to="bottomrightU" begin="191" end="191" number="1"/>
<flow id="car190" type="carType1" from="gneE8" to="-gneE21" begin="194" end="194" number="1"/>
<flow id="car191" type="carType0" from="-gneE29" to="gneE37" begin="194" end="194" number="1"/>
<flow id="car192" type="carType2" from="-gneE51" to="gneE22" begin="194" end="194" number="1"/>
<flow id="car193" type="carType0" from="gneE50" to="-gneE13" begin="195" end="195" number="1"/>
<flow id="car194" type="carType1" from="gneE46" to="gneE37" begin="195" end="195" number="1"/>
<flow id="car195" type="carType0" from="toprightL" to="gneE34" begin="196" end="196" number="1"/>
<flow id="car196" type="carType0" from="-gneE37" to="-gneE48" begin="196" end="196" number="1"/>
<flow id="car197" type="carType2" from="bottomrightU" to="-gneE28" begin="196" end="196" number="1"/>
<flow id="car198" type="carType0" from="-gneE28" to="topleftR" begin="196" end="196" number="1"/>
<flow id="car199" type="carType2" from="-gneE7" to="gneE21" begin="197" end="197" number="1"/>
</routes>
