<routes>
<vType id="carType0" length="7" maxSpeed="46.52" accel="2.19" decel="4.13" speedDev="0.2" sigma="0.21"/>
<vType id="carType1" length="7" maxSpeed="52.09" accel="2.13" decel="4.42" speedDev="0.2" sigma="0.17"/>
<vType id="carType2" length="8" maxSpeed="43.56" accel="2.81" decel="5.63" speedDev="0.2" sigma="0.1"/>
<flow id="car0" type="carType2" from="-gneE18" to="gneE48" begin="0" end="0" number="1"/>
<flow id="car1" type="carType2" from="gneE43" to="gneE9" begin="1" end="1" number="1"/>
<flow id="car2" type="carType0" from="gneE27" to="-gneE50" begin="2" end="2" number="1"/>
<flow id="car3" type="carType2" from="bottomleftU" to="gneE50" begin="4" end="4" number="1"/>
<flow id="car4" type="carType2" from="gneE51" to="gneE30" begin="6" end="6" number="1"/>
<flow id="car5" type="carType1" from="gneE42" to="gneE21" begin="7" end="7" number="1"/>
<flow id="car6" type="carType0" from="gneE21" to="topleftD" begin="7" end="7" number="1"/>
<flow id="car7" type="carType1" from="-gneE50" to="bottomleftU" begin="7" end="7" number="1"/>
<flow id="car8" type="carType0" from="-gneE49" to="gneE27" begin="7" end="7" number="1"/>
<flow id="car9" type="carType1" from="gneE37" to="-gneE42" begin="9" end="9" number="1"/>
<flow id="car10" type="carType0" from="gneE8" to="-gneE21" begin="12" end="12" number="1"/>
<flow id="car11" type="carType0" from="gneE30" to="-gneE37" begin="14" end="14" number="1"/>
<flow id="car12" type="carType0" from="gneE46" to="gneE37" begin="14" end="14" number="1"/>
<flow id="car13" type="carType1" from="toprightD" to="gneE35" begin="15" end="15" number="1"/>
<flow id="car14" type="carType1" from="gneE45" to="gneE22" begin="15" end="15" number="1"/>
<flow id="car15" type="carType1" from="bottomrightU" to="-gneE44" begin="16" end="16" number="1"/>
<flow id="car16" type="carType2" from="bottomleftU" to="-gneE50" begin="18" end="18" number="1"/>
<flow id="car17" type="carType1" from="topleftR" to="gneE9" begin="19" end="19" number="1"/>
<flow id="car18" type="carType0" from="-gneE43" to="bottomleftR" begin="19" end="19" number="1"/>
<flow id="car19" type="carType1" from="-gneE27" to="gneE9" begin="23" end="23" number="1"/>
<flow id="car20" type="carType1" from="bottomleftU" to="gneE49" begin="24" end="24" number="1"/>
<flow id="car21" type="carType1" from="-gneE42" to="gneE27" begin="25" end="25" number="1"/>
<flow id="car22" type="carType1" from="gneE18" to="-gneE43" begin="26" end="26" number="1"/>
<flow id="car23" type="carType1" from="gneE42" to="-gneE51" begin="27" end="27" number="1"/>
<flow id="car24" type="carType2" from="gneE8" to="gneE30" begin="27" end="27" number="1"/>
<flow id="car25" type="carType0" from="gneE46" to="toprightL" begin="27" end="27" number="1"/>
<flow id="car26" type="carType1" from="bottomrightL" to="gneE22" begin="27" end="27" number="1"/>
<flow id="car27" type="carType0" from="topleftD" to="-gneE33" begin="28" end="28" number="1"/>
<flow id="car28" type="carType0" from="-gneE33" to="gneE27" begin="28" end="28" number="1"/>
<flow id="car29" type="carType2" from="gneE22" to="gneE50" begin="29" end="29" number="1"/>
<flow id="car30" type="carType2" from="toprightL" to="gneE18" begin="30" end="30" number="1"/>
<flow id="car31" type="carType1" from="-gneE8" to="gneE35" begin="31" end="31" number="1"/>
<flow id="car32" type="carType1" from="gneE21" to="-gneE28" begin="31" end="31" number="1"/>
<flow id="car33" type="carType0" from="bottomrightL" to="gneE28" begin="31" end="31" number="1"/>
<flow id="car34" type="carType2" from="-gneE7" to="gneE29" begin="32" end="32" number="1"/>
<flow id="car35" type="carType2" from="gneE8" to="-gneE45" begin="32" end="32" number="1"/>
<flow id="car36" type="carType0" from="gneE46" to="gneE43" begin="34" end="34" number="1"/>
<flow id="car37" type="carType1" from="-gneE42" to="gneE8" begin="37" end="37" number="1"/>
<flow id="car38" type="carType1" from="-gneE51" to="gneE30" begin="38" end="38" number="1"/>
<flow id="car39" type="carType0" from="gneE46" to="bottomrightL" begin="40" end="40" number="1"/>
<flow id="car40" type="carType2" from="-gneE34" to="-gneE50" begin="42" end="42" number="1"/>
<flow id="car41" type="carType2" from="-gneE27" to="gneE21" begin="42" end="42" number="1"/>
<flow id="car42" type="carType1" from="bottomleftR" to="gneE49" begin="42" end="42" number="1"/>
<flow id="car43" type="carType1" from="gneE34" to="-gneE43" begin="43" end="43" number="1"/>
<flow id="car44" type="carType2" from="gneE9" to="topleftR" begin="45" end="45" number="1"/>
<flow id="car45" type="carType2" from="toprightL" to="-gneE51" begin="49" end="49" number="1"/>
<flow id="car46" type="carType1" from="gneE48" to="-gneE50" begin="52" end="52" number="1"/>
<flow id="car47" type="carType0" from="-gneE8" to="-gneE21" begin="53" end="53" number="1"/>
<flow id="car48" type="carType1" from="-gneE33" to="topleftD" begin="53" end="53" number="1"/>
<flow id="car49" type="carType2" from="gneE44" to="-gneE8" begin="53" end="53" number="1"/>
<flow id="car50" type="carType1" from="gneE43" to="-gneE51" begin="53" end="53" number="1"/>
<flow id="car51" type="carType0" from="gneE35" to="bottomleftR" begin="54" end="54" number="1"/>
<flow id="car52" type="carType1" from="-gneE37" to="toprightL" begin="54" end="54" number="1"/>
<flow id="car53" type="carType1" from="-gneE29" to="gneE45" begin="55" end="55" number="1"/>
<flow id="car54" type="carType0" from="toprightL" to="gneE29" begin="59" end="59" number="1"/>
<flow id="car55" type="carType2" from="-gneE13" to="-gneE34" begin="59" end="59" number="1"/>
<flow id="car56" type="carType2" from="-gneE51" to="gneE48" begin="60" end="60" number="1"/>
<flow id="car57" type="carType0" from="gneE27" to="bottomleftU" begin="62" end="62" number="1"/>
<flow id="car58" type="carType0" from="gneE48" to="bottomleftU" begin="63" end="63" number="1"/>
<flow id="car59" type="carType1" from="gneE18" to="gneE42" begin="65" end="65" number="1"/>
<flow id="car60" type="carType1" from="-gneE13" to="gneE35" begin="67" end="67" number="1"/>
<flow id="car61" type="carType0" from="topleftR" to="-gneE49" begin="67" end="67" number="1"/>
<flow id="car62" type="carType0" from="-gneE43" to="-gneE45" begin="68" end="68" number="1"/>
<flow id="car63" type="carType2" from="toprightD" to="gneE18" begin="68" end="68" number="1"/>
<flow id="car64" type="carType1" from="topleftD" to="topleftD" begin="68" end="68" number="1"/>
<flow id="car65" type="carType0" from="topleftR" to="-gneE43" begin="68" end="68" number="1"/>
<flow id="car66" type="carType1" from="gneE44" to="-gneE8" begin="70" end="70" number="1"/>
<flow id="car67" type="carType1" from="gneE34" to="gneE45" begin="70" end="70" number="1"/>
<flow id="car68" type="carType0" from="bottomleftU" to="-gneE51" begin="71" end="71" number="1"/>
<flow id="car69" type="carType2" from="-gneE28" to="gneE18" begin="73" end="73" number="1"/>
<flow id="car70" type="carType1" from="gneE46" to="-gneE34" begin="74" end="74" number="1"/>
<flow id="car71" type="carType1" from="-gneE8" to="gneE18" begin="74" end="74" number="1"/>
<flow id="car72" type="carType0" from="gneE37" to="gneE46" begin="74" end="74" number="1"/>
<flow id="car73" type="carType0" from="bottomrightL" to="topleftD" begin="75" end="75" number="1"/>
<flow id="car74" type="carType0" from="gneE34" to="-gneE49" begin="76" end="76" number="1"/>
<flow id="car75" type="carType0" from="-gneE50" to="-gneE27" begin="84" end="84" number="1"/>
<flow id="car76" type="carType0" from="gneE37" to="gneE44" begin="85" end="85" number="1"/>
<flow id="car77" type="carType2" from="-gneE28" to="gneE45" begin="85" end="85" number="1"/>
<flow id="car78" type="carType2" from="-gneE8" to="gneE37" begin="85" end="85" number="1"/>
<flow id="car79" type="carType1" from="bottomrightL" to="-gneE18" begin="86" end="86" number="1"/>
<flow id="car80" type="carType1" from="gneE50" to="-gneE37" begin="86" end="86" number="1"/>
<flow id="car81" type="carType2" from="-gneE29" to="-gneE18" begin="87" end="87" number="1"/>
<flow id="car82" type="carType0" from="bottomrightU" to="bottomleftR" begin="88" end="88" number="1"/>
<flow id="car83" type="carType1" from="gneE28" to="-gneE18" begin="88" end="88" number="1"/>
<flow id="car84" type="carType0" from="gneE21" to="toprightL" begin="89" end="89" number="1"/>
<flow id="car85" type="carType2" from="gneE44" to="gneE48" begin="90" end="90" number="1"/>
<flow id="car86" type="carType2" from="-gneE37" to="gneE37" begin="91" end="91" number="1"/>
<flow id="car87" type="carType0" from="gneE18" to="gneE8" begin="92" end="92" number="1"/>
<flow id="car88" type="carType1" from="gneE51" to="bottomrightU" begin="94" end="94" number="1"/>
<flow id="car89" type="carType1" from="-gneE33" to="-gneE48" begin="95" end="95" number="1"/>
<flow id="car90" type="carType2" from="-gneE34" to="gneE46" begin="98" end="98" number="1"/>
<flow id="car91" type="carType2" from="gneE8" to="-gneE44" begin="100" end="100" number="1"/>
<flow id="car92" type="carType0" from="toprightL" to="-gneE50" begin="100" end="100" number="1"/>
<flow id="car93" type="carType0" from="gneE18" to="-gneE37" begin="102" end="102" number="1"/>
<flow id="car94" type="carType2" from="gneE44" to="bottomleftR" begin="103" end="103" number="1"/>
<flow id="car95" type="carType1" from="-gneE28" to="gneE21" begin="104" end="104" number="1"/>
<flow id="car96" type="carType2" from="-gneE42" to="gneE8" begin="107" end="107" number="1"/>
<flow id="car97" type="carType1" from="gneE45" to="gneE48" begin="109" end="109" number="1"/>
<flow id="car98" type="carType1" from="gneE34" to="gneE46" begin="110" end="110" number="1"/>
<flow id="car99" type="carType1" from="bottomleftR" to="-gneE51" begin="112" end="112" number="1"/>
<flow id="car100" type="carType2" from="gneE50" to="-gneE8" begin="112" end="112" number="1"/>
<flow id="car101" type="carType0" from="-gneE7" to="bottomleftU" begin="114" end="114" number="1"/>
<flow id="car102" type="carType2" from="-gneE42" to="bottomrightL" begin="114" end="114" number="1"/>
<flow id="car103" type="carType2" from="-gneE21" to="gneE46" begin="115" end="115" number="1"/>
<flow id="car104" type="carType1" from="-gneE8" to="gneE49" begin="115" end="115" number="1"/>
<flow id="car105" type="carType0" from="-gneE34" to="gneE45" begin="115" end="115" number="1"/>
<flow id="car106" type="carType2" from="bottomleftR" to="gneE27" begin="116" end="116" number="1"/>
<flow id="car107" type="carType2" from="-gneE51" to="gneE42" begin="118" end="118" number="1"/>
<flow id="car108" type="carType0" from="-gneE37" to="-gneE18" begin="118" end="118" number="1"/>
<flow id="car109" type="carType0" from="gneE30" to="gneE51" begin="119" end="119" number="1"/>
<flow id="car110" type="carType1" from="bottomleftU" to="toprightL" begin="123" end="123" number="1"/>
<flow id="car111" type="carType1" from="gneE43" to="-gneE29" begin="123" end="123" number="1"/>
<flow id="car112" type="carType0" from="gneE50" to="bottomrightU" begin="124" end="124" number="1"/>
<flow id="car113" type="carType1" from="bottomrightL" to="gneE18" begin="127" end="127" number="1"/>
<flow id="car114" type="carType1" from="-gneE27" to="gneE30" begin="127" end="127" number="1"/>
<flow id="car115" type="carType0" from="gneE45" to="gneE37" begin="127" end="127" number="1"/>
<flow id="car116" type="carType1" from="-gneE50" to="-gneE37" begin="128" end="128" number="1"/>
<flow id="car117" type="carType1" from="gneE27" to="topleftR" begin="129" end="129" number="1"/>
<flow id="car118" type="carType0" from="-gneE7" to="gneE35" begin="132" end="132" number="1"/>
<flow id="car119" type="carType1" from="gneE37" to="gneE35" begin="133" end="133" number="1"/>
<flow id="car120" type="carType2" from="-gneE29" to="-gneE49" begin="135" end="135" number="1"/>
<flow id="car121" type="carType1" from="gneE21" to="gneE49" begin="138" end="138" number="1"/>
<flow id="car122" type="carType2" from="-gneE51" to="gneE42" begin="138" end="138" number="1"/>
<flow id="car123" type="carType0" from="-gneE49" to="gneE49" begin="138" end="138" number="1"/>
<flow id="car124" type="carType2" from="toprightD" to="-gneE42" begin="138" end="138" number="1"/>
<flow id="car125" type="carType0" from="topleftD" to="gneE21" begin="139" end="139" number="1"/>
<flow id="car126" type="carType2" from="-gneE28" to="gneE22" begin="140" end="140" number="1"/>
<flow id="car127" type="carType2" from="-gneE8" to="-gneE13" begin="141" end="141" number="1"/>
<flow id="car128" type="carType2" from="-gneE21" to="gneE8" begin="141" end="141" number="1"/>
<flow id="car129" type="carType0" from="-gneE7" to="-gneE42" begin="142" end="142" number="1"/>
<flow id="car130" type="carType1" from="-gneE8" to="-gneE33" begin="143" end="143" number="1"/>
<flow id="car131" type="carType1" from="-gneE27" to="gneE29" begin="143" end="143" number="1"/>
<flow id="car132" type="carType0" from="-gneE45" to="-gneE45" begin="143" end="143" number="1"/>
<flow id="car133" type="carType2" from="bottomrightU" to="gneE44" begin="144" end="144" number="1"/>
<flow id="car134" type="carType1" from="gneE8" to="gneE48" begin="144" end="144" number="1"/>
<flow id="car135" type="carType0" from="-gneE33" to="gneE8" begin="145" end="145" number="1"/>
<flow id="car136" type="carType1" from="gneE21" to="bottomrightU" begin="146" end="146" number="1"/>
<flow id="car137" type="carType2" from="-gneE8" to="-gneE49" begin="146" end="146" number="1"/>
<flow id="car138" type="carType0" from="gneE46" to="gneE30" begin="147" end="147" number="1"/>
<flow id="car139" type="carType2" from="-gneE8" to="-gneE51" begin="148" end="148" number="1"/>
<flow id="car140" type="carType2" from="gneE28" to="topleftR" begin="150" end="150" number="1"/>
<flow id="car141" type="carType1" from="bottomleftR" to="gneE51" begin="152" end="152" number="1"/>
<flow id="car142" type="carType0" from="gneE43" to="-gneE34" begin="152" end="152" number="1"/>
<flow id="car143" type="carType2" from="-gneE42" to="gneE22" begin="153" end="153" number="1"/>
<flow id="car144" type="carType0" from="gneE22" to="gneE30" begin="153" end="153" number="1"/>
<flow id="car145" type="carType1" from="gneE21" to="gneE8" begin="153" end="153" number="1"/>
<flow id="car146" type="carType2" from="gneE43" to="gneE50" begin="154" end="154" number="1"/>
<flow id="car147" type="carType1" from="gneE29" to="-gneE51" begin="156" end="156" number="1"/>
<flow id="car148" type="carType1" from="-gneE34" to="gneE29" begin="157" end="157" number="1"/>
<flow id="car149" type="carType1" from="toprightL" to="gneE29" begin="159" end="159" number="1"/>
<flow id="car150" type="carType0" from="gneE34" to="gneE28" begin="161" end="161" number="1"/>
<flow id="car151" type="carType0" from="-gneE45" to="-gneE13" begin="161" end="161" number="1"/>
<flow id="car152" type="carType2" from="bottomrightU" to="-gneE48" begin="161" end="161" number="1"/>
<flow id="car153" type="carType2" from="gneE29" to="-gneE34" begin="161" end="161" number="1"/>
<flow id="car154" type="carType1" from="toprightL" to="toprightL" begin="162" end="162" number="1"/>
<flow id="car155" type="carType0" from="-gneE13" to="-gneE13" begin="162" end="162" number="1"/>
<flow id="car156" type="carType1" from="-gneE44" to="gneE35" begin="163" end="163" number="1"/>
<flow id="car157" type="carType1" from="gneE30" to="gneE49" begin="163" end="163" number="1"/>
<flow id="car158" type="carType0" from="gneE27" to="bottomrightL" begin="166" end="166" number="1"/>
<flow id="car159" type="carType0" from="-gneE34" to="gneE30" begin="167" end="167" number="1"/>
<flow id="car160" type="carType0" from="gneE29" to="toprightL" begin="168" end="168" number="1"/>
<flow id="car161" type="carType0" from="-gneE27" to="bottomleftU" begin="168" end="168" number="1"/>
<flow id="car162" type="carType0" from="gneE29" to="gneE18" begin="168" end="168" number="1"/>
<flow id="car163" type="carType1" from="toprightL" to="topleftD" begin="168" end="168" number="1"/>
<flow id="car164" type="carType1" from="gneE48" to="gneE49" begin="169" end="169" number="1"/>
<flow id="car165" type="carType0" from="-gneE29" to="gneE9" begin="170" end="170" number="1"/>
<flow id="car166" type="carType2" from="gneE18" to="toprightL" begin="170" end="170" number="1"/>
<flow id="car167" type="carType2" from="-gneE48" to="-gneE45" begin="171" end="171" number="1"/>
<flow id="car168" type="carType1" from="topleftD" to="gneE43" begin="171" end="171" number="1"/>
<flow id="car169" type="carType0" from="gneE27" to="-gneE27" begin="174" end="174" number="1"/>
<flow id="car170" type="carType1" from="-gneE42" to="-gneE42" begin="174" end="174" number="1"/>
<flow id="car171" type="carType1" from="bottomrightL" to="-gneE29" begin="175" end="175" number="1"/>
<flow id="car172" type="carType1" from="-gneE44" to="gneE21" begin="175" end="175" number="1"/>
<flow id="car173" type="carType2" from="-gneE18" to="-gneE7" begin="176" end="176" number="1"/>
<flow id="car174" type="carType0" from="-gneE34" to="gneE43" begin="176" end="176" number="1"/>
<flow id="car175" type="carType2" from="toprightD" to="gneE45" begin="177" end="177" number="1"/>
<flow id="car176" type="carType1" from="-gneE33" to="bottomleftU" begin="177" end="177" number="1"/>
<flow id="car177" type="carType0" from="-gneE13" to="-gneE48" begin="177" end="177" number="1"/>
<flow id="car178" type="carType2" from="gneE48" to="gneE46" begin="177" end="177" number="1"/>
<flow id="car179" type="carType1" from="-gneE13" to="toprightD" begin="180" end="180" number="1"/>
<flow id="car180" type="carType0" from="-gneE45" to="gneE48" begin="180" end="180" number="1"/>
<flow id="car181" type="carType1" from="-gneE48" to="-gneE50" begin="180" end="180" number="1"/>
<flow id="car182" type="carType1" from="gneE45" to="gneE27" begin="180" end="180" number="1"/>
<flow id="car183" type="carType1" from="-gneE50" to="-gneE43" begin="181" end="181" number="1"/>
<flow id="car184" type="carType2" from="-gneE27" to="gneE22" begin="182" end="182" number="1"/>
<flow id="car185" type="carType1" from="gneE37" to="-gneE48" begin="184" end="184" number="1"/>
<flow id="car186" type="carType2" from="bottomleftU" to="-gneE49" begin="184" end="184" number="1"/>
<flow id="car187" type="carType0" from="bottomrightU" to="gneE49" begin="187" end="187" number="1"/>
<flow id="car188" type="carType1" from="bottomrightU" to="-gneE13" begin="187" end="187" number="1"/>
<flow id="car189" type="carType0" from="gneE45" to="gneE8" begin="188" end="188" number="1"/>
<flow id="car190" type="carType1" from="-gneE21" to="gneE44" begin="188" end="188" number="1"/>
<flow id="car191" type="carType1" from="gneE9" to="-gneE49" begin="189" end="189" number="1"/>
<flow id="car192" type="carType0" from="bottomrightL" to="gneE35" begin="191" end="191" number="1"/>
<flow id="car193" type="carType2" from="-gneE44" to="-gneE28" begin="191" end="191" number="1"/>
<flow id="car194" type="carType0" from="-gneE42" to="-gneE21" begin="193" end="193" number="1"/>
<flow id="car195" type="carType2" from="bottomrightL" to="gneE48" begin="195" end="195" number="1"/>
<flow id="car196" type="carType1" from="-gneE37" to="-gneE7" begin="195" end="195" number="1"/>
<flow id="car197" type="carType2" from="-gneE49" to="gneE28" begin="198" end="198" number="1"/>
<flow id="car198" type="carType2" from="-gneE48" to="-gneE44" begin="199" end="199" number="1"/>
<flow id="car199" type="carType0" from="-gneE7" to="gneE28" begin="199" end="199" number="1"/>
</routes>
