<routes>
<vType id="carType0" length="5" speedFactor="0.92" speedDev="0.1"/>
<vType id="carType1" length="3" speedFactor="0.9" speedDev="0.1"/>
<vType id="carType2" length="5" speedFactor="1.01" speedDev="0.1"/>
<vehicle id="car0" type="carType1" depart="1">
<route edges="54442522#3 54442522#4 54442519#0 -54442519#0 229461788#0 229461788#1 -54442492#0 437264539 390967511#3 94194636 30581022#0 -543955967#5 -543955967#4 -543955967#2 -30572250#4 -30572436#0 -609809122#12 -30572307#3 -30572307#2 -30572307#1 "/>
</vehicle>
<vehicle id="car1" type="carType0" depart="2">
<route edges="-613421057 613421057 -611119751#2 -611119751#1 -611119751#0 61314986 -229685125#19 -229685125#17 -39499154 -54442503#0 -323482055#1 -323482055#0 -330426707#3 -54442502#1 54442494#1 54442494#2 54442496#5 30572612#2 30572612#3 30572612#4 330426704#0 330426704#1 330426704#2 330426704#3 229204969#1 229204969#3 -288243859 -288243876#2 -288243876#1 30581032#1 543987044#0 543987044#1 543992716#0 543992716#1 543992716#2 -57841427#3 -57841427#2 -57841427#1 -57841427#0 597476537 288243826#0 288243826#1 288243826#2 96559161#0 -599405913#4 -599405913#3 230584117 -536309995 -536309999#1 -536309999#0 -288529018#1 -288529018#0 -96559159#0 -290894746#3 328472960#0 "/>
</vehicle>
<vehicle id="car2" type="carType1" depart="2">
<route edges="352340386#4 352340386#5 352340386#6 352340386#7 352340386#8 -112539453#2 -112539453#1 -112539453#0 -543987039#1 -543987039#0 -229594810 -229696617#2 -229696617#1 -57841427#3 -57841427#2 -57841427#1 -57841427#0 597476537 288243826#0 288243826#1 288243826#2 96559161#0 -599405913#4 -599405913#3 230584117 -536309995 -536309999#1 -536309999#0 -288529018#1 -288529018#0 -599409691#2 -599409691#1 -437281313 112539409#12 -437285282 335212262#0 -335212260 335212260 "/>
</vehicle>
<vehicle id="car3" type="carType2" depart="3">
<route edges="112539409#6 -112539409#6 -112539409#5 -112539409#4 -112539409#3 312840481 599409691#2 288529018#0 288529018#1 536309999#0 536309999#1 536309995 -536309970 599405913#3 599405913#4 -96559161#0 -288243826#2 -288243826#1 -288243826#0 -597476537 57841424 57841427#1 57841427#2 57841427#3 -608060479 -543992716#1 -543992716#0 -543987041#1 -543987041#0 61314987#0 61314987#1 61314987#2 61314987#3 61314987#4 -597476536#1 -597476536#0 -183977852#2 183977852#2 "/>
</vehicle>
<vehicle id="car4" type="carType2" depart="4">
<route edges="-533430088 -290056905#1 -290056905#0 643906728 -587887916 -543955979#2 543955978#0 543955978#2 -544113736 -35135485#2 -35135485#1 -35135485#0 -543994840 35135486#0 35135486#1 35135486#2 35135486#3 35135486#5 35135486#6 35135486#7 35135486#8 35135486#9 35135486#10 35135486#11 24831941#0 24831941#1 24831941#2 24831921#0 24831921#1 24831921#2 611119757#1 480210543 543994838 543994837#0 543994837#1 543994837#2 543994837#3 24831878#0 24831878#1 24831878#2 480210542 "/>
</vehicle>
<vehicle id="car5" type="carType0" depart="4">
<route edges="-544136950#2 544136950#2 314245708#0 314245708#1 314245708#2 479747946#0 -543955979#2 543955978#0 543955978#2 -544113736 -35135485#2 -35135485#1 -35135485#0 -543994840 35135486#0 35135486#1 35135486#2 35135486#3 35135486#5 35135486#6 35135486#7 35135486#8 35135486#9 35135486#10 35135486#11 24831941#0 -606416512#3 -606416512#2 -606416512#1 -606416512#0 -90537906 -538075083 -62645607 24983270 27824137#0 399315028 -399315028 "/>
</vehicle>
<vehicle id="car6" type="carType0" depart="4">
<route edges="314244942#6 673201510#0 673201510#1 673201510#2 673214134 543998077#0 543998077#1 -222282188 -306646041#1 -306646041#0 51181790 -229791484 99583966#0 99583966#1 99583966#2 -99584009 -665672895#1 -665672895#0 543998080 474645853#1 474645854 543998087#0 112539548#1 "/>
</vehicle>
<vehicle id="car7" type="carType1" depart="4">
<route edges="-230149323 230149323 112539580#4 112539580#5 212501039#0 212501039#1 212501039#2 212501039#3 -112747266#0 186021783#1 186021783#2 674085563 204595240 627377408#0 544119518#0 112539517#0 112539532#1 112539532#2 112539532#4 112539532#5 -112539427#3 -112539427#2 -112539427#0 544115927 627377410 544115924#0 544115924#1 229472267 35978945#0 35978945#1 35978945#2 35978945#3 35978945#4 229472272 -331361367#1 -331361367#0 -549369214#3 -549369214#2 -549369214#1 -549369214#0 -27823971 230155583#0 230155583#1 544113746#1 544113746#2 627398410#0 306702181 549369217 -451321685 -212739840 480689979 451366765 62645607 "/>
</vehicle>
<vehicle id="car8" type="carType1" depart="4">
<route edges="-76094682#3 76094682#3 76094682#4 76094682#5 98023701#1 -30581032#1 288243876#1 288243876#2 288243859 -229204969#4 -229204969#2 -229204969#0 -330426704#2 -330426704#1 -330426704#0 -30572612#4 -30572612#3 -30572612#2 -30572612#1 -30572612#0 28220040#1 28220039#0 28220039#1 -323482064#1 -323482064#0 -54442503#6 -54442503#5 -30502757 -61314986 611119751#0 611119751#1 611119751#2 480210539 480210540 24831878#0 24831878#1 24831878#2 480210542 -611119757#1 -611119757#0 -24831921#1 -24831921#0 627261856 24831941#0 -606416512#3 -606416512#2 -606416512#1 -606416512#0 548718415 606416513 548718414#0 548718414#1 548718414#2 548718414#3 548718414#4 613419097 544113745#2 544113745#3 544113747 230155578 544113746#0 544113746#1 544113746#2 38521837 549369215#0 -549369215#0 "/>
</vehicle>
<vehicle id="car9" type="carType0" depart="5">
<route edges="597476533 -597476533 -229204969#4 -229204969#2 -229204969#0 -330426704#2 -330426704#1 -330426704#0 -30572612#4 -30572612#3 -30572612#2 -54442496#5 -54442494#2 -54442494#1 54442502#1 330426707#3 39499155 323482055#1 -261406935#1 -54442519#3 -54442519#2 -54442519#1 -54442519#0 229461788#0 229461788#1 229461788#2 229461788#4 -548774423#2 229469852#1 54442514#2 229804794 99583977 -30572430#1 -30572430#0 30572526 368652799 548851964 543957814#0 543955979#2 587887916 587887921 587887918 "/>
</vehicle>
<vehicle id="car10" type="carType0" depart="5">
<route edges="-108958425#2 108958418#1 108958418#2 108958418#3 108958414#4 -625379818#2 -625379818#1 -625379818#0 625379819 625379820 482746565 38747872#0 38747872#1 625272452 625379817#0 626936019#1 626936019#2 673219633 334635093#0 334635093#1 96559164#1 544131536#0 543988934#0 543988934#1 299911601#0 299911601#2 30581035#0 30581035#2 30581035#3 -329719849 329719849 "/>
</vehicle>
<vehicle id="car11" type="carType2" depart="5">
<route edges="-276110296#1 -276110296#0 -276110294 -597476533 -229204969#4 -229204969#2 -229204969#0 -330426704#2 -330426704#1 -330426704#0 -30572612#4 -30572612#3 -30572612#2 -54442496#5 -54442494#2 -54442494#1 54442502#1 330426707#3 39499155 323482055#1 -261406935#1 -54442519#3 -54442519#2 -54442519#1 -54442519#0 229461788#0 229461788#1 -54442492#0 -54442491#5 -54442491#4 "/>
</vehicle>
<vehicle id="car12" type="carType1" depart="6">
<route edges="-328472960#0 290894746#3 96559159#0 96559159#1 96559159#2 -96559159#2 "/>
</vehicle>
<vehicle id="car13" type="carType1" depart="6">
<route edges="-208907178#1 -208907178#0 112539456#1 112539456#2 112539456#3 -337440855#0 337440856#0 -544119517#2 -544119517#1 -627398404 -51231484 -499105908 -595097178#1 -595097178#0 -543992713 -544113736 -35135485#2 -35135485#1 -35135485#0 93097614#0 93097614#1 93097614#3 307240374 229685121#0 229685121#1 30581023 30581026#0 30581026#1 30581026#2 229685125#0 229685125#1 229685125#2 229685125#3 229685125#4 229685125#5 229685125#6 229685125#8 229685125#9 229685125#11 229685125#12 229685125#13 -323482055#2 -323482055#1 -323482055#0 -330426707#3 -54442502#1 54442494#1 54442494#2 54442496#5 30572612#2 30572612#3 30572612#4 330426704#0 330426704#1 330426704#2 330426704#3 229204969#1 229204969#3 229204969#5 229204969#6 229582725#0 229582725#1 543990203#2 544140571 544140572 229582731 61316868#0 61316868#2 96559154#0 96559154#1 112539535#0 112539535#1 112539555 "/>
</vehicle>
<vehicle id="car14" type="carType2" depart="6">
<route edges="-30581427#1 329531120 287202274#0 287202274#2 608119302#0 608119302#1 28220040#0 30572612#0 30572612#1 -54442496#5 -54442494#2 -54442494#1 54442502#1 330426707#3 39499155 323482055#1 -261406935#1 229327870 -229685125#12 -229685125#11 -229685125#9 -229685125#8 229682615 "/>
</vehicle>
<vehicle id="car15" type="carType0" depart="6">
<route edges="-57840085#0 57840085#0 112539601#0 112539601#1 112539563#1 112539563#2 665672895#1 665672895#2 -112539480 -55132515#0 -306646040#1 -306646040#0 314246464 306646041#0 306646041#1 306646041#2 543988935 625272446#0 625272446#1 625272446#2 625272446#3 51181958 367253393#2 367253395#1 367253395#2 367253395#3 551311128 551311088 554677553#0 552106643 552106669 552106667 552106658#0 643906741 544133364 299911597#1 299911597#2 544133363 544117897#1 51231484 627398404 544119517#1 544119517#2 544119517#4 544119517#5 544119517#6 544119517#7 544119517#8 544119517#9 544119517#10 543992715 112539493#0 112539529#0 112539529#1 -112539529#1 "/>
</vehicle>
<vehicle id="car16" type="carType0" depart="7">
<route edges="-323505043#1 -323505043#0 112539384#0 112539384#1 112539384#2 112539384#3 -544119517#2 -544119517#1 -627398404 -51231484 -499105908 -595097178#1 -595097178#0 587887915#1 587887915#2 587887916 554677071 552106642 552106644 551326636#0 551326647#0 551326653 169677529#0 112539538#0 112539538#1 112539464#0 112539464#1 112539464#2 112539464#3 112539464#4 -112539464#4 "/>
</vehicle>
<vehicle id="car17" type="carType2" depart="7">
<route edges="330426707#1 330426707#2 330426707#3 39499155 323482055#1 -261406935#1 -54442519#3 -54442519#2 -54442519#1 -54442519#0 229461788#0 "/>
</vehicle>
<vehicle id="car18" type="carType1" depart="8">
<route edges="112539532#2 -112539532#3 -112539532#1 -112539532#0 296768902#2 231619071#0 231619071#1 231619071#2 231619071#3 231619071#4 627377409#0 -51231484 -499105908 -595097178#1 -595097178#0 -543992713 -544113736 -35135485#2 -35135485#1 -35135485#0 -543994840 35135486#0 35135486#1 35135486#2 35135486#3 35135486#5 35135486#6 35135486#7 35135486#8 35135486#9 35135486#10 35135486#11 24831941#0 24831941#1 24831941#2 24831921#0 24831921#1 24831921#2 611119757#1 480210543 543994838 543994837#0 543994837#1 55132482#0 55132482#1 -480210531#0 57400489#0 57400489#1 543994832#3 544176804 24831334#0 24831334#1 544176808 "/>
</vehicle>
<vehicle id="car19" type="carType1" depart="8">
<route edges="208907178#0 -208907178#0 112539456#1 112539456#2 112539456#3 -337440855#0 337440856#0 -544119517#2 -544119517#1 -627398404 -51231484 -499105908 -595097178#1 -595097178#0 587887915#1 587887915#2 587887916 587887921 587887917 158219357 627043083 327301967-AddedOnRampEdge 327301967 166614020#0 166614020#1 166614020#2 -108958386#1 -108958386#0 543955974 543955973#0 -108958426#2 -108958426#1 -108958426#0 -625379818#2 -625379818#1 -108958409#1 -108958409#0 -108958434#1 -108958434#0 "/>
</vehicle>
<vehicle id="car20" type="carType1" depart="9">
<route edges="543940446#1 54442518 465858405#1 544113736 543992713 595097178#0 595097178#1 544117897#1 51231484 54442504#0 -112539416#11 -112539416#10 -212501026#0 -112539508#2 112539508#2 "/>
</vehicle>
<vehicle id="car21" type="carType0" depart="9">
<route edges="229582732 544140572 543990205 30581031 229582728#0 229582728#1 30581032#0 288243876#1 288243876#2 288243859 -229204969#4 -229204969#2 -229204969#0 -330426704#2 -330426704#1 -330426704#0 -30572612#4 -30572612#3 -30572612#2 -54442496#5 -54442494#2 -54442494#1 54442502#1 330426707#3 39499155 323482055#1 -261406935#1 -54442519#3 -54442519#2 -54442519#1 -54442519#0 229461788#0 229461788#1 229461788#2 229461788#4 -548774423#2 229469852#1 54442514#2 229804794 99583977 -30572430#1 -30572430#0 30572526 368652799 548851964 543957814#0 543955979#2 587887916 554677071 552106642 552106644 551326636#0 551326636#1 551326636#2 551326646#0 551326646#1 -107683791#2 -107683791#1 -288979528#5 -288979528#3 -288979528#2 "/>
</vehicle>
<vehicle id="car22" type="carType1" depart="9">
<route edges="543987039#1 -543987039#1 -543987039#0 -229594810 -229696617#2 -229696617#1 -57841427#3 -57841427#2 -57841427#1 -57841427#0 597476537 288243826#0 288243826#1 288243826#2 96559161#0 -599405913#4 -599405913#3 230584117 288529017#0 288529017#1 288529017#2 288529017#3 -230584133#0 "/>
</vehicle>
<vehicle id="car23" type="carType0" depart="9">
<route edges="-61314982#1 61314982#1 61314982#2 229685125#17 "/>
</vehicle>
<vehicle id="car24" type="carType2" depart="9">
<route edges="548747916 51181767 -51181767 -548747915 -544113735 -644442317#0 -99583984 -35135431#0 -543999159#6 -543999159#5 -543999159#3 -543999159#2 112539563#0 112539563#1 112539563#2 -665672895#0 543998080 474645853#1 474645854 212501023#1 -212501023#1 "/>
</vehicle>
<vehicle id="car25" type="carType2" depart="9">
<route edges="30581042 548768503#0 548768486#1 548768508 548768494#1 548768494#2 323481989 675606355#0 675606355#1 347940424#0 347940424#1 599384474 -212501013#2 112539428 599384475#1 543999159#6 51181784#0 51181784#1 51181784#2 51181784#3 229791484 96559149 314246465#0 314246464 51181790 -229791484 "/>
</vehicle>
<vehicle id="car26" type="carType1" depart="10">
<route edges="-35135486#10 35135486#10 35135486#11 24831941#0 24831941#1 24831941#2 24831921#0 24831921#1 24831921#2 611119757#1 480210543 543994838 543994837#0 543994837#1 543994837#2 480210541 -480210539 -611119751#2 -611119751#1 -611119751#0 61314986 -229685125#19 -229685125#17 -39499154 -54442503#0 -261406935#1 "/>
</vehicle>
<vehicle id="car27" type="carType1" depart="10">
<route edges="99584010 -99584010 -93097614#0 35135485#0 35135485#1 35135485#2 231359786#0 231359786#1 543957814#0 543955979#2 587887916 587887921 587887917 158219357 627043083 327301967-AddedOnRampEdge 327301967 166614020#0 166614020#1 166614020#2 -108958386#1 -108958386#0 543955974 543955973#0 543955973#1 38747873#0 38747873#1 112539602#0 112539602#1 112539602#2 "/>
</vehicle>
<vehicle id="car28" type="carType1" depart="10">
<route edges="-108958391#1 -108958391#0 287286999#1 287286999#2 -287286999#2 "/>
</vehicle>
<vehicle id="car29" type="carType0" depart="11">
<route edges="30502625#0 30502625#1 30502625#2 608119302#0 608119302#1 28220040#0 30572612#0 30572612#1 -54442496#5 -54442494#2 -54442494#1 54442502#1 330426707#3 39499155 323482055#1 -261406935#1 -54442519#3 -54442519#2 -54442519#1 -54442519#0 229461788#0 229461788#1 229461788#2 229461788#4 -548774423#2 229469852#1 54442514#2 229804794 99583977 -30572430#1 -30572430#0 30572526 368652799 548851964 543957814#0 543955978#0 543955978#2 543992713 595097178#0 595097178#1 544117897#1 229470578 -231619071#4 -231619071#3 -231619071#2 112539585#0 112539585#1 329894431 323505043#4 323505043#5 323505043#6 323505043#7 323505043#8 627377411 627377410 544115924#0 544115924#1 229472267 35978945#0 35978945#1 35978945#2 35978945#3 672987862#0 672987862#1 "/>
</vehicle>
<vehicle id="car30" type="carType1" depart="11">
<route edges="-54442490#0 54442490#0 54442490#1 54442526#0 54442526#1 327301962#1 327301962#2 479747946#0 587887916 587887921 587887917 158219357 627043083 327301967-AddedOnRampEdge 327301967 -367253395#3 -367253395#2 -367253395#1 -367253393#2 -230488484 543955977 -30581040#3 -30581040#2 -30581040#1 -30581040#0 482746565 38747872#0 38747872#1 625272452 625379817#0 -222282188 -306646041#1 -306646041#0 51181790 -229791484 99583966#0 99583966#1 212501033#1 229751632 99583980#2 99583980#3 -543999159#2 -543999159#1 -543999159#0 -544143634 96559145#0 96559145#1 -544161331#2 -544161331#0 61316856 229771985 599405913#1 599405913#2 230584117 536309974#0 230628149#0 230628149#1 "/>
</vehicle>
<vehicle id="car31" type="carType0" depart="11">
<route edges="287202274#0 287202274#2 608119302#0 608119302#1 28220040#0 28220040#1 28220039#0 28220039#1 -323482064#1 -323482064#0 -30502836#2 -30502836#1 480210533 543994831 543994832#0 543994832#1 480210532#0 480210532#1 480210531#0 480210531#1 480210531#2 480210531#3 -55132507 543994836#0 -543994836#0 "/>
</vehicle>
<vehicle id="car32" type="carType1" depart="12">
<route edges="-61316851 597476541 544128887#1 544128887#2 544128887#3 544128887#4 -287218202#1 -287218202#0 -96559161#0 -288243826#2 -288243826#1 -288243826#0 -597476537 57841424 57841427#1 57841427#2 57841427#3 229696617#0 229696617#2 229696617#3 543987039#0 543987039#1 30572590#1 30572590#2 30572590#3 30572590#4 30572590#5 30572422#0 30572250#0 30572250#1 30572250#2 30572250#3 30572250#4 -543955967#1 -543955967#0 -543988933#1 -543988933#0 -559401203 -28220042#0 -299252843#1 -299252843#0 "/>
</vehicle>
<vehicle id="car33" type="carType2" depart="13">
<route edges="-112539572#1 -212501029#0 -112539563#2 -112539563#1 -112539563#0 543999159#2 543999159#3 543999159#5 543999159#6 35135431#0 35135431#1 644442317#0 99583998#0 99583998#1 229748589#1 229748589#3 544131536#0 543988934#0 543988934#1 299911601#0 -30572307#13 643836493#3 643836493#4 39499157#0 39499157#1 39499157#3 229800520 61316848#1 -327301946#2 327301945#0 -548774423#2 -548774423#1 494506202#0 54442507#3 229685125#2 229685125#3 229685125#4 229685125#5 229685125#6 229682615 -229682615 "/>
</vehicle>
<vehicle id="car34" type="carType2" depart="13">
<route edges="543994831 480210537 480210535 613421057 -611119751#2 -611119751#1 -611119751#0 61314986 -229685125#19 -229685125#17 -39499154 -54442503#0 -323482055#1 -323482055#0 -330426707#3 -54442502#1 54442494#1 54442494#2 54442496#5 30572612#2 30572612#3 30572612#4 330426704#0 330426704#1 330426704#2 330426704#3 229204969#1 229204969#3 229204969#5 229204969#6 229582725#0 229582725#1 543990203#2 544140571 544140572 229582731 61316868#0 61316868#2 96559154#0 96559154#1 112539535#0 112539535#1 112539555 "/>
</vehicle>
<vehicle id="car35" type="carType2" depart="13">
<route edges="544136950#2 551298477 627043083 327301967-AddedOnRampEdge 327301967 -367253395#3 -367253395#2 -367253395#1 -367253393#2 -230488484 543955977 -30581040#3 -30581040#2 -30581040#1 -30581040#0 482746565 38747872#0 38747872#1 625272452 625379817#0 -222282188 -306646041#1 -306646041#0 51181790 -229791484 -51181784#3 -51181784#2 -51181784#1 -51181784#0 -543999159#6 -599384475#1 -599384475#0 -212501019 212501019 "/>
</vehicle>
<vehicle id="car36" type="carType0" depart="15">
<route edges="608102036#1 -608102036#1 -608102036#0 -112539475#0 229685125#12 229685125#13 -323482055#2 -323482055#1 -323482055#0 -330426707#3 -54442502#1 54442494#1 54442494#2 54442496#5 30572612#2 30572612#3 30572612#4 330426704#0 330426704#1 330426704#2 330426704#3 229204969#1 229204969#3 -288243859 -288243876#2 -288243876#1 30581032#1 543987044#0 543987044#1 543992716#0 543992716#1 543992716#2 -57841427#3 -57841427#2 -57841427#1 -57841427#0 597476537 288243826#0 288243826#1 288243826#2 98025992#0 98025992#1 544128889#1 544128889#2 -98025993 -99366826#6 -99366826#5 -99366826#4 -99366826#3 99366826#3 "/>
</vehicle>
<vehicle id="car37" type="carType2" depart="15">
<route edges="437281313 -599409691#0 -61316846#1 -61316846#0 -287200627#3 -287200627#2 -287200627#1 -287200627#0 -112539510 -437283621#1 -55132515#3 -55132515#2 -55132515#1 -55132515#0 -306646040#1 -306646040#0 314246464 306646041#0 306646041#1 306646041#2 626936019#1 626936019#2 673219633 334635093#0 334635093#1 96559164#1 544131536#0 543988934#0 543988934#1 299911601#0 -30572307#13 643836493#3 643836493#4 39499157#0 39499157#1 39499157#3 39499157#4 39499157#5 -614130409#2 "/>
</vehicle>
<vehicle id="car38" type="carType2" depart="16">
<route edges="314244942#0 314244942#5 314244942#6 673201510#0 673201510#1 673201510#2 673214134 543998077#0 543998077#1 543988935 625272446#0 625272446#1 625272446#2 625272446#3 51181958 367253393#2 367253395#1 367253395#2 367253395#3 551311128 551311088 554677553#0 552106643 552106669 552106667 552106658#0 643906741 544133364 299911597#1 299911597#2 544133363 544117897#1 51231484 54442504#0 -112539416#11 -112539416#10 -212501026#0 -112539543#6 112539456#0 208907178#0 208907178#1 -112539439#3 "/>
</vehicle>
<vehicle id="car39" type="carType2" depart="16">
<route edges="-55132517 55132517 544113741#0 544113741#1 544113741#2 627398411 544113739#1 230155574 -299911036#8 -299911036#6 -299911036#5 -299911036#4 112747284#1 112539416#2 112539416#4 112539416#5 112539416#6 112539416#7 112539456#3 -337440855#0 337440856#0 -544119517#2 -544119517#1 -627398404 -51231484 -499105908 -595097178#1 -595097178#0 587887915#1 587887915#2 587887916 587887921 587887917 158219357 627043083 327301967-AddedOnRampEdge 327301967 -367253395#3 -367253395#2 -367253395#1 -367253393#2 -230488484 543955977 -30581040#3 -30581040#2 -30581040#1 -30581040#0 482746565 38747872#0 38747872#1 625272452 625379817#0 -222282188 -306646041#1 -306646041#0 51181790 -229791484 99583966#0 99583966#1 212501033#1 -212501033#1 "/>
</vehicle>
<vehicle id="car40" type="carType0" depart="16">
<route edges="-112539435#4 -112539435#3 112539403#3 589922569#1 391650149#1 112539580#0 112539580#1 112539580#2 112539580#3 112539580#4 112539580#5 212501039#0 212501039#1 212501039#2 212501039#3 -112747266#0 186021783#1 186021783#2 674085563 204595240 627377408#0 544119518#0 112539517#0 112539532#1 112539532#2 112539532#4 112539532#5 112539427#4 112539427#5 112539427#6 112539427#7 544115923#0 544115923#1 229472444 "/>
</vehicle>
<vehicle id="car41" type="carType2" depart="17">
<route edges="-230584132#2 -230584132#1 -230584132#0 -536309991#1 -536309991#0 -230584115#2 -230584115#1 -328465997#0 -536309999#0 -288529018#1 -288529018#0 -599409691#2 -599409691#1 -599409691#0 -61316846#1 -61316846#0 -287200627#3 -287200627#2 -287200627#1 -287200627#0 -112539510 -437283621#1 474645853#1 474645854 "/>
</vehicle>
<vehicle id="car42" type="carType1" depart="17">
<route edges="112539436#1 288979528#4 107683791#0 107683791#2 552831498#0 552831498#1 552831498#3 551326652 551326649#0 551326649#1 552106667 552106658#0 643906741 544133364 299911597#1 299911597#2 544133363 544117897#1 51231484 54442504#0 54442504#1 230260467 627398405#1 627398405#2 627398405#3 54442513#1 -54442513#1 "/>
</vehicle>
<vehicle id="car43" type="carType1" depart="18">
<route edges="-186021783#1 186021783#1 186021783#2 674085563 204595240 627377408#0 544119518#0 112539517#0 -112539532#0 296768902#2 231619071#0 231619071#1 231619071#2 231619071#3 231619071#4 627377409#0 -51231484 -499105908 -595097178#1 -595097178#0 -543992713 -544113736 -35135485#2 -35135485#1 -35135485#0 93097614#0 93097614#1 93097614#3 307240374 229685121#0 229685121#1 30581023 544176815 544176810 30581024#0 30581024#1 307240375 548774423#0 548774423#1 548774423#2 390967511#1 390967511#2 390967511#3 94194636 30581022#0 -543955967#5 -543955967#4 -543955967#2 -543955967#1 -543955967#0 -543988933#1 -543988933#0 543988933#0 "/>
</vehicle>
<vehicle id="car44" type="carType1" depart="19">
<route edges="112539537#3 -112539529#1 112539581#1 299911036#1 299911036#2 299911036#3 299911036#4 299911036#5 299911036#6 299911036#8 627398408#0 627398408#1 544113740#0 544113740#1 -544113741#2 -544113741#1 -544113741#0 -55132517 55132517 "/>
</vehicle>
<vehicle id="car45" type="carType0" depart="19">
<route edges="-544176802 480210547#0 480210547#1 24831334#0 24831334#1 544176808 480210534 -229685125#20 -229685125#19 -229685125#17 -39499154 -54442503#0 -261406935#1 -54442519#3 -54442519#2 -54442519#1 -54442519#0 229461788#0 229461788#1 -54442492#0 437264539 390967511#3 94194636 30581022#0 107683790#1 107683790#2 107683790#3 99584021#1 99584021#2 -94161511#3 -94161511#2 -94161511#1 -94161511#0 -548747913#1 -548747913#0 -51181767 -548747915 -544113735 -644442317#0 -99583984 -35135431#0 -543999159#6 -543999159#5 -543999159#3 -543999159#2 112539563#0 112539563#1 112539563#2 -665672895#0 "/>
</vehicle>
<vehicle id="car46" type="carType0" depart="19">
<route edges="-336123010 -599405913#3 -599405913#2 -599405913#1 -599405913#0 -61316856 544161331#0 544161331#2 544161333#0 544161333#1 544143634 543999159#0 112539395 112539601#1 112539563#1 112539563#2 665672895#1 665672895#2 -112539480 -55132515#0 -306646040#1 -306646040#0 314246464 306646041#0 306646041#1 306646041#2 543988935 625272446#0 625272446#1 625272446#2 625272446#3 51181958 367253393#2 367253395#1 367253395#2 367253395#3 551311128 551298478 552106650 560212665 551298520 314245708#0 314245708#1 314245708#2 -327301962#2 327301962#2 "/>
</vehicle>
<vehicle id="car47" type="carType0" depart="20">
<route edges="54442510#2 51182504 543994840 93097614#0 93097614#1 93097614#3 307240374 229685121#0 229685121#1 30581023 30581026#0 30581026#1 30581026#2 229685125#0 229685125#1 229685125#2 229685125#3 229685125#4 229685125#5 229685125#6 229685125#8 229685125#9 229685125#11 229685125#12 229685125#13 -323482055#2 -323482055#1 -323482055#0 -330426707#3 -54442502#1 54442494#1 54442494#2 54442496#5 30572612#2 30572612#3 30572612#4 330426704#0 330426704#1 330426704#2 330426704#3 229204969#1 229204969#3 229204969#5 229204969#6 229582725#0 229582725#1 543990203#2 229582733 30581033#0 351683634#1 "/>
</vehicle>
<vehicle id="car48" type="carType2" depart="20">
<route edges="-212501017#1 -212501017#0 -112539466#3 112539513#3 306646040#3 229756649#0 229756649#1 229756649#2 229756649#3 229756649#4 306646041#2 543988935 625272446#0 625272446#1 625272446#2 625272446#3 51181958 367253393#2 367253395#1 367253395#2 367253395#3 551311128 551311088 554677553#0 552106643 552106669 552106667 552106658#0 -587887916 -543955979#2 543955978#0 543955978#2 465858406#0 465858406#1 231360841 102021524#0 "/>
</vehicle>
<vehicle id="car49" type="carType2" depart="20">
<route edges="-548718414#3 -548718414#2 -548718414#1 -548718414#0 230155582 548718413 90537906 606416512#0 606416512#1 606416512#2 606416512#3 24831941#1 24831941#2 24831921#0 24831921#1 24831921#2 611119757#1 480210543 543994838 543994837#0 543994837#1 543994837#2 480210541 -480210539 -611119751#2 -611119751#1 -611119751#0 -611110304 -61314985#6 61314985#6 "/>
</vehicle>
<vehicle id="car50" type="carType2" depart="20">
<route edges="93097614#0 -93097614#0 35135485#0 35135485#1 35135485#2 544113736 543992713 595097178#0 595097178#1 544117897#1 51231484 627398404 54442497#1 54442497#2 -54442497#2 "/>
</vehicle>
<vehicle id="car51" type="carType2" depart="20">
<route edges="-35135486#2 -35135486#1 -35135486#0 543994840 93097614#0 93097614#1 93097614#3 307240374 229685121#0 229685121#1 30581023 30581026#0 30581026#1 30581026#2 229685125#0 229685125#1 229685125#2 229685125#3 229685125#4 229685125#5 229685125#6 229685125#8 229685125#9 229685125#11 229685125#12 229685125#13 -323482055#2 -323482055#1 -323482055#0 -330426707#3 -330426707#2 -330426707#1 -330426707#0 -28220039#1 -28220039#0 627033998#0 627033998#1 -608119302#1 -608119302#0 30502881 59398230#1 "/>
</vehicle>
<vehicle id="car52" type="carType1" depart="20">
<route edges="196312638#0 196312638#1 196312638#2 196312638#3 -503231530#1 -503231530#0 -594300971#4 -594300971#3 -594300971#2 -594300971#1 -594300971#0 -108958397#2 -108958397#1 107683791#0 107683791#2 552831498#0 552831498#1 552831498#3 551326652 551326649#0 551326649#1 552106667 552106658#0 -587887916 -543955979#2 -543957814#0 -548851964 -368652799 -30572526 30572430#0 30572430#1 30572430#2 229685126#0 229685126#1 543955965#2 543957798 30581023 30581026#0 30581026#1 30581026#2 229685125#0 229685125#1 229685125#2 229685125#3 229685125#4 229685125#5 229685125#6 229685125#8 229685125#9 229685125#11 112539475#0 61314983#0 61314983#1 61314983#2 -61314982#1 -61314982#0 61314985#0 61314985#1 -61314985#1 "/>
</vehicle>
<vehicle id="car53" type="carType0" depart="21">
<route edges="112539475#0 -112539475#0 -229685125#11 -229685125#9 -229685125#8 -229685125#6 -229685125#5 -229685125#4 -54442508#3 -494506202#2 -494506202#1 -494506202#0 54442514#1 54442514#2 229804794 99583977 -30572430#1 -30572430#0 30572526 368652799 548851964 543957814#0 543955979#2 587887916 554677071 552106642 552106644 551326636#0 551326636#1 551326636#2 551326646#0 551326646#1 552831498#0 551326644#0 551326644#2 "/>
</vehicle>
<vehicle id="car54" type="carType2" depart="21">
<route edges="51182257#0 51182257#1 314257861#1 314244942#0 314244942#5 314244942#6 673201510#0 673201510#1 673201510#2 673214134 543998077#0 543998077#1 -222282188 -306646041#1 -306646041#0 51181790 -229791484 99583966#0 99583966#1 99583966#2 -99584009 -665672895#1 -665672895#0 543998080 437283621#1 112539510 287200627#0 287200627#1 287200627#2 304002653#0 437287540 61316846#1 599409691#0 599409691#1 -312840481 112539409#3 112539409#4 112539409#5 112539409#6 112539409#7 "/>
</vehicle>
<vehicle id="car55" type="carType2" depart="21">
<route edges="-544128887#3 -544128887#2 61316858 544128888 61316849#0 -101049742#2 -101049742#1 -101049742#0 -101049746#0 -288243878#1 -61316865#1 544161331#2 544161333#0 544161333#1 544143634 543999159#0 112539395 112539601#1 112539563#1 112539563#2 665672895#1 665672895#2 212501033#0 -99583966#1 -99583966#0 "/>
</vehicle>
<vehicle id="car56" type="carType0" depart="22">
<route edges="-589937887 -108958434#5 -108958434#4 -108958434#2 108958409#0 108958409#1 -625379818#0 625379819 625379820 482746565 38747872#0 38747872#1 625272452 625379817#0 626936019#1 626936019#2 673219633 334635093#0 334635093#1 96559164#1 544131536#0 -550833862 94161511#0 94161511#1 94161511#2 94161511#3 367421825 311168598#0 311168598#1 "/>
</vehicle>
<vehicle id="car57" type="carType2" depart="23">