<?xml version="1.0" encoding="UTF-8"?>

<!-- generated on 03/10/19 17:25:23 by Eclipse SUMO polyconvert Version 1.1.0
<configuration xmlns:xsi="http://www.w3.org/2001/XMLSchema-instance" xsi:noNamespaceSchemaLocation="http://sumo.dlr.de/xsd/polyconvertConfiguration.xsd">

    <input>
        <net-file value="osm.net.xml"/>
        <osm-files value="osm_bbox.osm.xml"/>
        <osm.keep-full-type value="true"/>
        <type-file value="C:\Program%20Files%20(x86)\Eclipse\Sumo\data\typemap\osmPolyconvert.typ.xml"/>
    </input>

    <output>
        <output-file value="osm.poly.xml"/>
    </output>

    <processing>
        <poi-layer-offset value="5"/>
    </processing>

    <report>
        <verbose value="true"/>
    </report>

</configuration>
-->

<additional xmlns:xsi="http://www.w3.org/2001/XMLSchema-instance" xsi:noNamespaceSchemaLocation="http://sumo.dlr.de/xsd/additional_file.xsd">
    <location netOffset="-617490.08,-5229654.95" convBoundary="-10094.50,-17685.09,24446.72,19919.44" origBoundary="16.418088,47.050967,16.879451,47.386707" projParameter="+proj=utm +zone=33 +ellps=WGS84 +datum=WGS84 +units=m +no_defs"/>

    <poly id="112747264" type="amenity.parking" color="184,184,179" fill="1" layer="-1.00" shape="7338.723389,4180.496645 7320.737384,4225.876924 7364.966622,4217.217619 7440.036690,4073.797198 7444.423644,4065.407204 7407.445690,4046.169327 7406.490289,4048.028011 7338.723389,4180.496645"/>
    <poly id="112747267" type="amenity.parking" color="184,184,179" fill="1" layer="-1.00" shape="7556.475413,3529.425287 7536.565855,3607.917347 7546.334334,3619.297529 7644.626478,3646.828398 7656.287637,3641.772390 7759.662369,3382.541653 7750.190293,3368.966095 7681.857156,3349.573120 7633.105188,3527.379807 7584.409651,3512.139628 7556.475413,3529.425287"/>
    <poly id="112747295" type="amenity.parking" color="184,184,179" fill="1" layer="-1.00" shape="7448.626261,3713.330821 7528.217074,3752.971540 7531.610970,3754.666596 7549.418271,3716.787565 7470.688862,3666.836435 7464.356990,3680.177117 7448.626261,3713.330821"/>
    <poly id="166611877" type="building.public" color="255,230,230" fill="1" layer="-1.00" shape="5595.222403,2749.574362 5601.020294,2734.075004 5606.521534,2736.079650 5612.022110,2721.041043 5582.681669,2710.368149 5578.353412,2722.207114 5573.498467,2720.438313 5572.269761,2723.803570 5569.180833,2722.683038 5567.671464,2726.798443 5557.360209,2723.048217 5558.901469,2718.855651 5547.275081,2714.622222 5541.525902,2730.333877 5595.222403,2749.574362"/>
    <poly id="166611877#1" type="tourism.museum" color="207,245,201" fill="1" layer="-2.00" shape="5595.222403,2749.574362 5601.020294,2734.075004 5606.521534,2736.079650 5612.022110,2721.041043 5582.681669,2710.368149 5578.353412,2722.207114 5573.498467,2720.438313 5572.269761,2723.803570 5569.180833,2722.683038 5567.671464,2726.798443 5557.360209,2723.048217 5558.901469,2718.855651 5547.275081,2714.622222 5541.525902,2730.333877 5595.222403,2749.574362"/>
    <poly id="166612551" type="building.yes" color="255,230,230" fill="0" layer="-1.00" shape="5531.846837,2517.364212 5536.755481,2518.744975 5578.435998,2527.451196 5578.819155,2525.780427 5581.305631,2515.114899 5571.116452,2512.756904 5570.650656,2514.759479 5551.188669,2511.129921 5551.645044,2505.580644 5555.165469,2490.356208 5566.446083,2492.670207 5565.743266,2496.235422 5566.806962,2498.247628 5569.894995,2498.689964 5571.920882,2497.409183 5572.876201,2494.082699 5585.327911,2496.888074 5586.525213,2492.488229 5588.370596,2485.333615 5529.537094,2471.556199 5522.205452,2469.068811 5525.282818,2465.297344 5518.069513,2460.399914 5513.018383,2467.676785 5508.552227,2475.955304 5505.242802,2491.962386"/>
    <poly id="166612552" type="building.retail" color="255,230,230" fill="1" layer="-1.00" shape="5642.492244,2627.399165 5656.739772,2588.006464 5617.091335,2573.749884 5607.818498,2599.371620 5602.790058,2597.565830 5597.808280,2611.325620 5642.492244,2627.399165"/>
    <poly id="169630640" type="leisure.swimming_pool" color="207,245,201" fill="1" layer="-2.00" shape="3918.732647,2573.203072 3912.073405,2510.719522 3958.313919,2505.822373 3964.972455,2568.317096 3918.732647,2573.203072"/>
    <poly id="169630640#1" type="sport.swimming" color="79,230,125" fill="1" layer="-2.00" shape="3918.732647,2573.203072 3912.073405,2510.719522 3958.313919,2505.822373 3964.972455,2568.317096 3918.732647,2573.203072"/>
    <poly id="169630642" type="amenity.arts_centre" color="237,199,199" fill="1" layer="-1.00" shape="4712.682976,2510.642616 4751.785044,2518.111157 4742.008095,2569.004894 4702.906358,2561.536411 4712.682976,2510.642616"/>
    <poly id="169630642#1" type="building.yes" color="255,230,230" fill="1" layer="-1.00" shape="4712.682976,2510.642616 4751.785044,2518.111157 4742.008095,2569.004894 4702.906358,2561.536411 4712.682976,2510.642616"/>
    <poly id="169630644" type="amenity.cinema" color="237,199,199" fill="1" layer="-1.00" shape="5251.112009,2677.686421 5262.356484,2647.113385 5230.957059,2635.632373 5219.712730,2666.205466 5251.112009,2677.686421"/>
    <poly id="169630644#1" type="building.public" color="255,230,230" fill="1" layer="-1.00" shape="5251.112009,2677.686421 5262.356484,2647.113385 5230.957059,2635.632373 5219.712730,2666.205466 5251.112009,2677.686421"/>
    <poly id="169630648" type="amenity.townhall" color="237,199,199" fill="1" layer="-1.00" shape="5216.249346,2311.305978 5225.717257,2300.651952 5251.020191,2268.136350 5284.474631,2295.246900 5259.427239,2327.122855 5238.774455,2311.518253 5232.965411,2307.172891 5224.061017,2318.405608 5221.800238,2316.413071 5216.249346,2311.305978"/>
    <poly id="169630648#1" type="building.public" color="255,230,230" fill="1" layer="-1.00" shape="5216.249346,2311.305978 5225.717257,2300.651952 5251.020191,2268.136350 5284.474631,2295.246900 5259.427239,2327.122855 5238.774455,2311.518253 5232.965411,2307.172891 5224.061017,2318.405608 5221.800238,2316.413071 5216.249346,2311.305978"/>
    <poly id="169630651" type="building.dormitory" color="255,230,230" fill="1" layer="-1.00" shape="4570.810220,2532.223055 4583.634338,2491.375583 4563.657820,2485.137173 4550.833602,2525.995798 4570.810220,2532.223055"/>
    <poly id="169630653" type="building.dormitory" color="255,230,230" fill="1" layer="-1.00" shape="4543.199843,2619.480746 4555.342374,2578.619139 4534.297937,2572.403220 4522.148203,2613.253599 4543.199843,2619.480746"/>
    <poly id="169630655" type="amenity.college" color="237,199,199" fill="1" layer="-1.00" shape="4639.418478,2506.937079 4644.644800,2476.850012 4631.718993,2474.614945 4629.140272,2489.459079 4613.294304,2486.718976 4615.777776,2472.450977 4601.908754,2470.051949 4596.785194,2499.574178 4639.418478,2506.937079"/>
    <poly id="169630655#1" type="building.school" color="255,230,230" fill="1" layer="-1.00" shape="4639.418478,2506.937079 4644.644800,2476.850012 4631.718993,2474.614945 4629.140272,2489.459079 4613.294304,2486.718976 4615.777776,2472.450977 4601.908754,2470.051949 4596.785194,2499.574178 4639.418478,2506.937079"/>
    <poly id="169630656" type="building.dormitory" color="255,230,230" fill="1" layer="-1.00" shape="4650.205138,2536.443636 4653.198923,2519.473531 4640.741826,2517.281486 4635.019092,2549.770790 4679.158947,2557.498672 4684.846356,2525.264372 4672.849405,2523.159599 4669.898238,2539.897111 4650.205138,2536.443636"/>
    <poly id="169630657" type="leisure.pitch" color="207,245,201" fill="1" layer="-2.00" shape="3362.814807,3337.564220 3369.455121,3291.318224 3346.504774,3288.035820 3339.864639,3334.281839 3362.814807,3337.564220"/>
    <poly id="169630657#1" type="sport.basketball" color="79,230,125" fill="1" layer="-2.00" shape="3362.814807,3337.564220 3369.455121,3291.318224 3346.504774,3288.035820 3339.864639,3334.281839 3362.814807,3337.564220"/>
    <poly id="169630660" type="leisure.pitch" color="207,245,201" fill="1" layer="-2.00" shape="3410.994624,3344.842971 3418.643331,3298.917833 3441.756526,3302.748610 3434.115210,3348.673876 3410.994624,3344.842971"/>
    <poly id="169630660#1" type="sport.basketball" color="79,230,125" fill="1" layer="-2.00" shape="3410.994624,3344.842971 3418.643331,3298.917833 3441.756526,3302.748610 3434.115210,3348.673876 3410.994624,3344.842971"/>
    <poly id="169630661" type="leisure.pitch" color="207,245,201" fill="1" layer="-2.00" shape="3398.195848,3342.768789 3405.491472,3296.703000 3382.887653,3293.138494 3375.599544,3339.215576 3398.195848,3342.768789"/>
    <poly id="169630661#1" type="sport.basketball" color="79,230,125" fill="1" layer="-2.00" shape="3398.195848,3342.768789 3405.491472,3296.703000 3382.887653,3293.138494 3375.599544,3339.215576 3398.195848,3342.768789"/>
    <poly id="169630663" type="leisure.pitch" color="207,245,201" fill="1" layer="-2.00" shape="4597.113887,2545.952064 4603.028613,2514.055927 4626.603279,2518.401070 4620.688428,2550.297186 4597.113887,2545.952064"/>
    <poly id="169630663#1" type="sport.basketball" color="79,230,125" fill="1" layer="-2.00" shape="4597.113887,2545.952064 4603.028613,2514.055927 4626.603279,2518.401070 4620.688428,2550.297186 4597.113887,2545.952064"/>
    <poly id="169630720" type="leisure.swimming_pool" color="207,245,201" fill="1" layer="-2.00" shape="3807.259241,2917.487984 3809.869105,2915.029046 3812.326296,2913.367429 3814.621383,2912.225004 3809.329641,2901.110034 3810.317441,2900.574451 3811.427712,2899.974678 3817.579565,2911.240727 3838.903187,2911.945594 3841.179834,2861.207844 3819.460353,2860.228025 3818.066929,2892.306601 3812.402796,2893.791169 3808.078626,2895.659023 3807.018104,2896.048586 3802.012163,2899.036422 3797.469145,2902.711933 3793.535827,2906.933606 3807.259241,2917.487984"/>
    <poly id="169630720#1" type="sport.swimming" color="79,230,125" fill="1" layer="-2.00" shape="3807.259241,2917.487984 3809.869105,2915.029046 3812.326296,2913.367429 3814.621383,2912.225004 3809.329641,2901.110034 3810.317441,2900.574451 3811.427712,2899.974678 3817.579565,2911.240727 3838.903187,2911.945594 3841.179834,2861.207844 3819.460353,2860.228025 3818.066929,2892.306601 3812.402796,2893.791169 3808.078626,2895.659023 3807.018104,2896.048586 3802.012163,2899.036422 3797.469145,2902.711933 3793.535827,2906.933606 3807.259241,2917.487984"/>
    <poly id="169630721" type="leisure.swimming_pool" color="207,245,201" fill="1" layer="-2.00" shape="3824.695277,2926.084167 3821.680731,2927.600920 3819.525683,2930.035843 3818.643646,2933.163964 3819.206346,2936.366231 3821.105920,2938.995618 3823.967998,2940.477445 3834.657521,2940.952744 3834.742202,2939.042282 3834.947969,2934.555058 3835.192880,2929.268182 3835.316706,2926.558068 3824.695277,2926.084167"/>
    <poly id="169630726" type="building.yes" color="255,230,230" fill="1" layer="-1.00" shape="4583.900536,2610.760795 4592.166805,2566.939704 4573.934413,2563.527792 4565.675846,2607.349062 4583.900536,2610.760795"/>
    <poly id="169630728" type="building.retail" color="255,230,230" fill="1" layer="-1.00" shape="4851.146122,1412.620094 4908.390974,1419.931444 4909.845614,1408.577257 4951.597013,1413.911572 4949.637035,1429.179758 4968.197273,1431.554446 4965.684921,1451.180360 4960.932982,1462.655197 4955.766951,1468.529351 4949.111452,1469.892287 4941.392471,1461.171851 4939.028809,1460.833817 4936.633252,1460.572945 4928.818843,1469.616320 4862.086330,1461.107696 4849.547222,1425.094171 4851.146122,1412.620094"/>
    <poly id="169630728#1" type="shop.mall" color="237,199,255" fill="1" layer="-1.00" shape="4851.146122,1412.620094 4908.390974,1419.931444 4909.845614,1408.577257 4951.597013,1413.911572 4949.637035,1429.179758 4968.197273,1431.554446 4965.684921,1451.180360 4960.932982,1462.655197 4955.766951,1468.529351 4949.111452,1469.892287 4941.392471,1461.171851 4939.028809,1460.833817 4936.633252,1460.572945 4928.818843,1469.616320 4862.086330,1461.107696 4849.547222,1425.094171 4851.146122,1412.620094"/>
    <poly id="169630731" type="building.yes" color="255,230,230" fill="1" layer="-1.00" shape="4609.520718,2632.258001 4620.985320,2574.761829 4605.147851,2571.621685 4593.690739,2629.129153 4609.520718,2632.258001"/>
    <poly id="178489411" type="building.retail" color="255,230,230" fill="1" layer="-1.00" shape="4960.126767,5173.573679 4997.779748,5187.629461 5017.994036,5133.817501 4980.348314,5119.761753 4960.126767,5173.573679"/>
    <poly id="178489411#1" type="shop.supermarket" color="237,199,255" fill="1" layer="-1.00" shape="4960.126767,5173.573679 4997.779748,5187.629461 5017.994036,5133.817501 4980.348314,5119.761753 4960.126767,5173.573679"/>
    <poly id="178489413" type="building.retail" color="255,230,230" fill="1" layer="-1.00" shape="4722.942555,5183.888106 4823.250785,5217.451208 4827.711155,5204.202575 4850.465420,5211.811727 4872.865027,5145.259421 4852.238125,5138.350230 4742.269314,5101.540378 4720.565232,5166.006309 4728.112485,5168.530647 4722.942555,5183.888106"/>
    <poly id="178489413#1" type="shop.supermarket" color="237,199,255" fill="1" layer="-1.00" shape="4722.942555,5183.888106 4823.250785,5217.451208 4827.711155,5204.202575 4850.465420,5211.811727 4872.865027,5145.259421 4852.238125,5138.350230 4742.269314,5101.540378 4720.565232,5166.006309 4728.112485,5168.530647 4722.942555,5183.888106"/>
    <poly id="178489415" type="building.retail" color="255,230,230" fill="1" layer="-1.00" shape="5003.021446,4918.670653 5064.007397,4942.838937 5060.350273,4952.001705 5054.321383,4949.619651 5046.823237,4968.419438 5016.446780,4956.382188 5013.292709,4964.288020 4988.719939,4954.539312 5003.021446,4918.670653"/>
    <poly id="178489415#1" type="shop.supermarket" color="237,199,255" fill="1" layer="-1.00" shape="5003.021446,4918.670653 5064.007397,4942.838937 5060.350273,4952.001705 5054.321383,4949.619651 5046.823237,4968.419438 5016.446780,4956.382188 5013.292709,4964.288020 4988.719939,4954.539312 5003.021446,4918.670653"/>
    <poly id="178489419" type="amenity.parking" color="184,184,179" fill="1" layer="-1.00" shape="4968.623883,4975.645921 5059.270662,5010.190936 5065.520721,4993.900055 5116.348551,5013.277541 5126.752832,4986.133319 5062.789456,4961.758002 5058.123565,4973.934923 5016.727887,4958.155717 5014.262992,4964.586100 4987.466933,4954.368781 5002.023882,4916.404198 4992.703708,4912.853261 4968.623883,4975.645921"/>
    <poly id="178489420" type="leisure.pitch" color="207,245,201" fill="1" layer="-2.00" shape="5196.698301,5038.416564 5205.219276,5016.314055 5165.470635,5001.079429 5156.957359,5023.182150 5196.698301,5038.416564"/>
    <poly id="178489421" type="amenity.parking" color="184,184,179" fill="1" layer="-1.00" shape="5136.046024,5121.027087 5151.371578,5082.167169 5306.361804,5142.957003 5291.035349,5181.816538 5136.046024,5121.027087"/>
    <poly id="178489422" type="amenity.parking" color="184,184,179" fill="1" layer="-1.00" shape="4961.513598,5066.606908 5033.145635,5093.452822 5018.550698,5132.161419 4979.906980,5117.684725 4963.710235,5160.651588 4930.722551,5148.282622 4961.513598,5066.606908"/>
    <poly id="178489423" type="amenity.parking" color="184,184,179" fill="1" layer="-1.00" shape="4721.166400,5091.286531 4756.039684,4988.904554 4930.509554,5047.986578 4895.641061,5150.367737 4721.166400,5091.286531"/>
    <poly id="183970976" type="leisure.pitch" color="207,245,201" fill="1" layer="-2.00" shape="2050.856914,3326.011336 2076.871161,3332.797102 2087.776039,3291.194507 2061.768960,3284.419961 2050.856914,3326.011336"/>
    <poly id="183970976#1" type="sport.basketball" color="79,230,125" fill="1" layer="-2.00" shape="2050.856914,3326.011336 2076.871161,3332.797102 2087.776039,3291.194507 2061.768960,3284.419961 2050.856914,3326.011336"/>
    <poly id="183970988" type="leisure.playground" color="207,245,201" fill="1" layer="-2.00" shape="2068.042010,3361.634572 2069.678623,3354.096805 2068.629399,3346.460185 2065.616507,3340.451407 2060.131087,3335.026259 2053.117274,3331.793641 2045.597163,3331.130003 2038.122351,3333.090983 2031.772042,3337.476077 2026.742185,3345.078579 2025.188652,3352.629155 2026.787926,3361.522040 2030.872758,3368.063892 2037.854065,3373.274713 2045.308160,3375.326673 2053.012795,3374.726672 2060.043080,3371.533806 2065.558412,3366.131276 2068.042010,3361.634572"/>
    <poly id="183973149" type="leisure.recreation_ground" color="207,245,201" fill="1" layer="-2.00" shape="3923.678215,2386.765028 4186.729549,2487.299146 4192.657025,2514.959234 4191.908906,2541.347815 4008.452270,2646.066363 3965.974331,2579.988792 3957.421843,2575.721701 3915.205098,2578.300176 3906.651535,2509.240635 3890.588197,2507.120588 3875.734396,2498.099270 3907.630634,2418.864778 3923.678215,2386.765028"/>
    <poly id="183982813" type="natural.water" color="181,209,209" fill="1" layer="-4.00" shape="3743.587181,2897.870109 3722.389819,2914.622567 3743.750258,2939.352649 3753.966660,2929.678977 3762.714809,2899.318959 3762.125984,2896.649799 3759.933583,2895.003874 3755.717210,2894.572667 3751.492436,2894.919512 3747.403299,2896.036249 3743.587181,2897.870109"/>
    <poly id="183984038" type="leisure.pitch" color="207,245,201" fill="1" layer="-2.00" shape="3969.083151,2858.889702 4019.008629,2806.886396 3937.197997,2728.826818 3887.272875,2780.819696 3969.083151,2858.889702"/>
    <poly id="183984038#1" type="sport.soccer" color="79,230,125" fill="1" layer="-2.00" shape="3969.083151,2858.889702 4019.008629,2806.886396 3937.197997,2728.826818 3887.272875,2780.819696 3969.083151,2858.889702"/>
    <poly id="183986523" type="amenity.hospital" color="237,199,199" fill="1" layer="-1.00" shape="4971.435688,3021.060224 5054.405653,3051.186688 5007.794476,3189.433472 5115.063688,3238.331158 5028.168738,3432.907949 5018.311790,3437.962031 5008.154262,3438.162643 4879.205822,3377.077338 4860.511813,3358.068085 4823.434750,3336.821450 4971.435688,3021.060224"/>
    <poly id="183987544" type="amenity.marketplace" color="237,199,199" fill="1" layer="-1.00" shape="5750.021108,2475.418802 5828.697381,2510.836169 5846.400553,2471.760611 5767.716274,2436.342860 5750.021108,2475.418802"/>
    <poly id="183987544#1" type="building.retail" color="255,230,230" fill="1" layer="-1.00" shape="5750.021108,2475.418802 5828.697381,2510.836169 5846.400553,2471.760611 5767.716274,2436.342860 5750.021108,2475.418802"/>
    <poly id="183987608" type="amenity.marketplace" color="237,199,199" fill="1" layer="-1.00" shape="5835.115800,2510.992417 5879.157668,2532.802133 5896.578653,2497.823210 5852.536577,2476.013370 5835.115800,2510.992417"/>
    <poly id="183987608#1" type="building.retail" color="255,230,230" fill="1" layer="-1.00" shape="5835.115800,2510.992417 5879.157668,2532.802133 5896.578653,2497.823210 5852.536577,2476.013370 5835.115800,2510.992417"/>
    <poly id="183987713" type="leisure.park" color="207,245,201" fill="1" layer="-2.00" shape="5605.545502,2110.317952 5620.196882,2109.000118 5635.856017,2117.831430 5656.409539,2171.968854 5672.689768,2202.214545 5685.590687,2218.370561 5761.380372,2312.827729 5773.605604,2330.492968 5736.884373,2396.554537 5676.882778,2351.966743 5601.509331,2284.379402 5588.005720,2269.522886 5585.323503,2242.329020 5605.545502,2110.317952"/>
    <poly id="201603992" type="building.retail" color="255,230,230" fill="1" layer="-1.00" shape="7551.994162,3527.584900 7532.203591,3522.507490 7529.420971,3490.863095 7561.879836,3377.560329 7554.611624,3375.382980 7558.993981,3360.088845 7661.175852,3387.568774 7622.994314,3521.795687 7559.806555,3504.058459 7551.994162,3527.584900"/>
    <poly id="201603992#1" type="shop.supermarket" color="237,199,255" fill="1" layer="-1.00" shape="7551.994162,3527.584900 7532.203591,3522.507490 7529.420971,3490.863095 7561.879836,3377.560329 7554.611624,3375.382980 7558.993981,3360.088845 7661.175852,3387.568774 7622.994314,3521.795687 7559.806555,3504.058459 7551.994162,3527.584900"/>
    <poly id="201604003" type="building.retail" color="255,230,230" fill="1" layer="-1.00" shape="7618.171854,3142.589850 7652.451014,3020.009412 7760.053951,3050.640845 7724.954348,3173.603588 7618.171854,3142.589850"/>
    <poly id="201604003#1" type="shop.department_store" color="237,199,255" fill="1" layer="-1.00" shape="7618.171854,3142.589850 7652.451014,3020.009412 7760.053951,3050.640845 7724.954348,3173.603588 7618.171854,3142.589850"/>
    <poly id="201604010" type="building.yes" color="255,230,230" fill="1" layer="-1.00" shape="7686.886985,3284.107314 7697.796707,3247.027460 7703.061112,3244.437458 7709.236074,3241.399822 7705.584771,3236.119305 7702.423120,3231.671885 7708.129099,3211.469631 7627.000720,3187.270072 7617.528911,3221.901249 7597.537233,3216.619282 7590.038923,3244.599427 7610.247574,3249.285612 7608.661776,3256.945488 7647.318212,3272.940267 7686.886985,3284.107314"/>
    <poly id="201604010#1" type="shop.doityourself" color="237,199,255" fill="1" layer="-1.00" shape="7686.886985,3284.107314 7697.796707,3247.027460 7703.061112,3244.437458 7709.236074,3241.399822 7705.584771,3236.119305 7702.423120,3231.671885 7708.129099,3211.469631 7627.000720,3187.270072 7617.528911,3221.901249 7597.537233,3216.619282 7590.038923,3244.599427 7610.247574,3249.285612 7608.661776,3256.945488 7647.318212,3272.940267 7686.886985,3284.107314"/>
    <poly id="207339028" type="building.yes" color="255,230,230" fill="1" layer="-1.00" shape="5558.443973,3352.414715 5564.664404,3336.957489 5582.040501,3343.901237 5585.138932,3336.194624 5597.634025,3341.191166 5595.885284,3345.535043 5601.058883,3347.610702 5596.195636,3359.705319 5591.314663,3357.758057 5588.607929,3364.472249 5558.443973,3352.414715"/>
    <poly id="207524277" type="leisure.park" color="207,245,201" fill="1" layer="-2.00" shape="5607.070885,2096.719604 5699.589464,2130.678019 5747.111804,2014.856914 5764.654681,2021.248642 5789.573993,1963.768239 5690.855215,1880.550689 5668.082192,1913.217345 5640.032943,1954.134512 5618.871292,1982.187785 5604.247333,2013.067804 5597.925313,2040.607685 5596.419504,2073.984586 5607.070885,2096.719604"/>
    <poly id="207524278" type="building.yes" color="255,230,230" fill="1" layer="-1.00" shape="5723.303144,1943.230051 5726.241915,1942.490881 5729.257311,1942.798363 5732.976568,1944.943810 5734.750675,1947.393329 5735.568544,1950.300958 5735.127290,1954.027258 5732.866036,1957.504360 5730.332423,1959.152500 5727.189961,1959.854066 5724.192031,1959.435773 5721.517999,1958.012539 5719.306444,1955.476077 5718.290354,1952.631021 5718.516234,1948.700113 5719.867748,1945.993379 5723.303144,1943.230051"/>
    <poly id="207524278#1" type="man_made.water_tower" color="255,230,230" fill="1" layer="-1.00" shape="5723.303144,1943.230051 5726.241915,1942.490881 5729.257311,1942.798363 5732.976568,1944.943810 5734.750675,1947.393329 5735.568544,1950.300958 5735.127290,1954.027258 5732.866036,1957.504360 5730.332423,1959.152500 5727.189961,1959.854066 5724.192031,1959.435773 5721.517999,1958.012539 5719.306444,1955.476077 5718.290354,1952.631021 5718.516234,1948.700113 5719.867748,1945.993379 5723.303144,1943.230051"/>
    <poly id="208907179" type="leisure.park" color="207,245,201" fill="1" layer="-2.00" shape="6358.391286,3579.095520 6367.545540,3562.833424 6498.177605,3635.927688 6489.023318,3652.178475 6358.391286,3579.095520"/>
    <poly id="212501031" type="leisure.park" color="207,245,201" fill="1" layer="-2.00" shape="4805.005911,1478.436553 4773.216134,1478.156619 4744.344692,1479.593738 4761.335736,1513.508994 4765.129397,1521.970082 4775.453655,1528.509579 4787.549023,1534.007354 4800.864766,1536.895567 4813.760114,1537.407082 4825.425441,1536.236652 4838.650300,1531.807756 4848.279087,1527.671303 4834.150087,1482.119424 4820.962684,1479.611792 4805.005911,1478.436553"/>
    <poly id="221067519" type="landuse.forest" color="140,196,107" fill="1" layer="-3.00" shape="4312.336656,4764.606512 4313.036269,4751.246571 4311.038718,4747.536565 4305.461036,4746.743295 4301.911859,4752.562343 4300.036727,4757.226361 4297.711493,4769.029659 4285.692440,4774.084722 4279.550505,4774.224823 4275.366496,4792.471292 4274.627299,4804.818724 4277.491787,4811.270396 4282.910058,4814.650735 4287.512982,4813.522778 4292.534363,4805.688476 4299.181631,4797.932198 4303.934309,4792.115749 4308.416439,4785.837902 4310.956743,4779.019696 4311.754699,4770.431201 4312.336656,4764.606512"/>
    <poly id="221067519#1" type="leisure.park" color="207,245,201" fill="1" layer="-2.00" shape="4312.336656,4764.606512 4313.036269,4751.246571 4311.038718,4747.536565 4305.461036,4746.743295 4301.911859,4752.562343 4300.036727,4757.226361 4297.711493,4769.029659 4285.692440,4774.084722 4279.550505,4774.224823 4275.366496,4792.471292 4274.627299,4804.818724 4277.491787,4811.270396 4282.910058,4814.650735 4287.512982,4813.522778 4292.534363,4805.688476 4299.181631,4797.932198 4303.934309,4792.115749 4308.416439,4785.837902 4310.956743,4779.019696 4311.754699,4770.431201 4312.336656,4764.606512"/>
    <poly id="221067519#2" type="natural.water" color="181,209,209" fill="1" layer="-4.00" shape="4312.336656,4764.606512 4313.036269,4751.246571 4311.038718,4747.536565 4305.461036,4746.743295 4301.911859,4752.562343 4300.036727,4757.226361 4297.711493,4769.029659 4285.692440,4774.084722 4279.550505,4774.224823 4275.366496,4792.471292 4274.627299,4804.818724 4277.491787,4811.270396 4282.910058,4814.650735 4287.512982,4813.522778 4292.534363,4805.688476 4299.181631,4797.932198 4303.934309,4792.115749 4308.416439,4785.837902 4310.956743,4779.019696 4311.754699,4770.431201 4312.336656,4764.606512"/>
    <poly id="221067520" type="natural.water" color="181,209,209" fill="1" layer="-4.00" shape="4222.188040,5040.662536 4222.504406,5036.333228 4219.771394,5033.786540 4215.943848,5035.497526 4212.420280,5032.745541 4208.858385,5026.713099 4206.273444,5021.390091 4205.855883,5017.412527 4201.320385,5005.734550 4196.358248,4999.328601 4191.666656,4993.384054 4188.455132,4992.750847 4185.276454,4996.031684 4173.438793,5024.259601 4171.351727,5040.681620 4169.962201,5047.868244 4167.227527,5056.049950 4165.543565,5060.262129 4164.858581,5065.584417 4166.341607,5069.283769 4171.948139,5071.600613 4176.337415,5072.380387 4182.023469,5072.675492 4187.095017,5069.733853 4192.053770,5067.123418 4200.751967,5059.364859 4210.755486,5054.012379 4221.543130,5046.241349 4222.188040,5040.662536"/>
    <poly id="225174083" type="amenity.bus_station" color="237,199,199" fill="1" layer="-1.00" shape="4745.568317,2682.010267 4799.406465,2716.844216 4813.011386,2629.942357 4806.027452,2619.803092 4772.100447,2602.346585 4745.544892,2670.336393 4745.568317,2682.010267"/>
    <poly id="227784269" type="natural.scrub" color="140,196,107" fill="0" layer="-4.00" shape="6437.397289,1411.480756 6427.267436,1426.076953 6306.196349,1480.928029 6290.787955,1509.255260"/>
    <poly id="227784574" type="landuse.allotments" color="194,194,130" fill="0" layer="-3.00" shape="3445.377441,5014.376212 3395.589060,5118.816424 3438.215086,5140.056922 3405.222446,5208.709467 3383.161333,5254.395040 3370.904599,5284.450211 3359.203755,5314.716902 3357.908676,5339.148802 3363.177196,5360.557761 3371.000524,5395.437836 3392.209428,5429.013437 3406.078500,5447.708096 3404.733809,5461.621854 3401.929525,5476.217228 3397.112926,5510.716119 3388.391073,5595.085811 3357.568980,5578.589850"/>
    <poly id="227796549" type="landuse.industrial" color="209,209,204" fill="0" layer="-3.00" shape="5785.209188,4152.598383 5767.088357,4147.728489 5736.792175,4180.660081 5698.747399,4212.707468 5671.053719,4229.428620 5657.049171,4233.739143 5651.055130,4224.942368 5621.608172,4238.258536 5575.090601,4248.272779 5542.608002,4252.153908 5516.253902,4249.670235 5499.487636,4273.901902 5383.887176,4232.060439 5249.074958,4181.661522 5221.061918,4171.195623 5216.251169,4184.836949 5056.738889,4111.215978 5008.375711,4184.644287 5157.398533,4274.800252 5230.974362,4308.359128 5193.001989,4397.566615 5129.736106,4567.073608 5402.440152,4672.870162 5369.524804,4754.755322 5599.532764,4854.647710 5496.452633,5129.416298"/>
    <poly id="227804968" type="landuse.brownfield" color="194,194,130" fill="0" layer="-3.00" shape="3445.377441,5014.376212 3478.112787,5029.988979 3558.397994,4866.262762 3647.657563,4678.196550 3665.434473,4643.752615 3674.551933,4610.031476 3710.821918,4613.588854 3746.145137,4389.029742"/>
    <poly id="228352082" type="landuse.industrial" color="209,209,204" fill="0" layer="-3.00" shape="6437.397289,1411.480756 6472.790123,1419.127255 6558.052977,1419.838339 6597.587393,1444.137807 6657.337125,1455.087547"/>
    <poly id="228353461" type="landuse.industrial" color="209,209,204" fill="0" layer="-3.00" shape="3632.882193,4074.214915 3613.801765,4126.375697 3592.941385,4177.488335 3566.014158,4245.375159 3546.775262,4292.763490"/>
    <poly id="228354800" type="landuse.residential" color="235,235,227" fill="0" layer="-3.00" shape="2887.061320,2057.318564 2871.228948,2100.286984 2853.242289,2164.256730 2835.307951,2240.545633"/>
    <poly id="228355229" type="landuse.forest" color="140,196,107" fill="0" layer="-3.00" shape="5496.452633,5129.416298 5476.628953,5180.978052 5439.415459,5277.770924"/>
    <poly id="228355615" type="landuse.forest" color="140,196,107" fill="0" layer="-3.00" shape="3339.538831,4945.803787 3332.116797,4971.511041 3328.790554,4992.377116 3324.024911,5018.850277 3318.683555,5047.935375 3319.531895,5070.832467 3321.212197,5091.912211 3320.862315,5109.003698 3311.514614,5127.478558 3306.395352,5139.803088 3302.080535,5150.176297 3289.218241,5185.422200 3280.092346,5206.013960 3276.990272,5241.459634 3277.884019,5262.512154 3275.369479,5282.194182 3269.212742,5312.307675 3269.267382,5338.857283 3273.396841,5395.229486 3275.480923,5434.672417 3275.439873,5484.755739 3276.778063,5529.575382 3284.240531,5541.790564"/>