<routes>
<vType id="carType0" length="3" speedFactor="1.0" speedDev="0.1"/>
<vType id="carType1" length="3" speedFactor="1.08" speedDev="0.1"/>
<vType id="carType2" length="5" speedFactor="0.9" speedDev="0.1"/>
<vehicle id="car0" type="carType0" depart="0">
<route edges="462566814#1 462566814#2 460700545 462566816 460700529#4 460700535 460700538#0 460700538#1 460700538#2 301247106 176920641 301247107 176920642 176920640 659623841 301247105 301247104 667580924 667580925 667580922 667580923#0 667580923#1 667580923#2 667580923#3 25655766#1 25655766#2 577804003 25655784 577803994 577803997 577803995 577803999 25655844 565148651 565148652 565148653 565148654 565148655 565148657 563145676 565148658 565148659 565148660 564359189 565148663 565148664 541768470 25938163 565148667 565148666 298806058 521313793#0 521313793#1 562451233#0 562451233#1 562451233#2 562451233#3 562451233#4 562451232 431760423#1 562451221 562451220 325029426#1 325029426#2 325029426#3 325029426#4 282806488#1 562451206 562451204#0 562451204#1 562451204#2 562451203 562451202#0 562451202#1 562451202#2 562451202#3 562451201#0 562451201#1 562451201#2 562451201#3 562451201#4 562451201#5 562451201#6 306437093#0 306437093#1 306437093#2 306437093#4 -187826084#6 -187826084#5 -187826084#4 -187826084#3 -187826084#2 -187826084#1 -187826084#0 461742231 461742230#0 461742232 187826085#0 187826085#1 187826085#2 563122302#0 563122302#1 563122302#2 563122302#3 563122302#4 563122302#5 563122302#6 563122302#7 563122302#8 563122302#9 563122302#10 563122302#11 "/>
</vehicle>
<vehicle id="car1" type="carType2" depart="0">
<route edges="-435059227 435059227 212739834 550260071#2 550260071#3 550260071#0 212739836 212739838 435059228 429375433 551232115 25937815#1-AddedOnRampEdge 25937815#1 435059931 435059930 577610178 563820676 564004075 564004076 577610214 564004078 564098602 564098603 564098605 564098606 482809860 564098607 565148650 117589390 81109351 565148654 565148655 565148657 563145676 565148658 565148659 565148660 564359189 565148663 565148664 541768470 25938198 615571411 615571415 615571426 615571419 615571432 615571439 615571447 615571451 615571455 615571463 578599979 81115726 81114940 578599978 578599987 578599988 344450794 344450788 344450790 342759157 38090951 344450787#0 344450787#1 344450802 344450786 578603841 228040095 344450797 81114937 578605734 578605733 344450803 578605741 344450795 578605742 558229640 558229641 558229646 558229647 344450801 344450804 578624505 578624504 344450792 344450796 309267176 344450793 578634121 578634122 344480862 344480865 578634141 344480856 578634144 578634145 558229648 344480868 25939587 25939587-AddedOffRampEdge 666248774 352997977 578634150 578634152 578634158 578634153#0 578634153#1 578634153#2 157102729#0 157102729#1 157102729#2 157102729#3 157102729#4 448638440#0 448638440#1 448638440#2 448638440#3 448638440#4 -325154125 -24436826#2 -24436826#1 -24436826#0 -62069940#7 -62069940#6 -62069940#5 -62069940#4 -62069940#3 -62069940#2 -62069940#1 -62069940#0 -53638680#1 -53638680#0 51260765#0 51260765#1 201101930#0 201101930#1 201101930#2 201101930#3 201101930#4 201101930#5 201101930#6 187799255#1 187799255#2 187799255#3 187799255#4 -201101936#0 -448318990#5 -448318990#3 -448318990#2 -448318990#1 -448318990#0 -520947940#2 -520947940#1 -520947940#0 -520947931#1 -520947931#0 -310712450#9 -310712450#7 -310712450#6 -310712450#5 -310712450#4 -310712450#2 -310712450#1 -310712450#0 -563605071#4 -563605071#3 -563605071#2 -563605071#1 -563605071#0 -448319748 -62069943#5 -62069943#4 -62069943#3 -62069943#1 -62069943#0 -62069935 -548355064#1 -548355064#0 -310047751#2 -310047751#1 -310047751#0 -310692285 -310692286 -199193734 -62069936#1 -62069936#0 -548355080#4 -548355080#3 -548355080#2 -548355080#0 -185750212#1 -185750212#0 -329777429 -310793347 -395516610 -185750211 -395516611 -349342029 -349342030 -349342026 -349342018#1 -349342018#0 -349342022 -349342028 -349342025#0 -61121195#3 -61121195#2 -61121195#1 -61121195#0 -548355073 -349342037#1 -349342037#0 -448305748 -349342036#3 -349342036#2 -349342036#1 -349342036#0 -61121200 157763133 349342038 32797604 61121196#0 61121196#1 61121196#2 544418936#0 544418936#1 61121198#0 61121198#1 349342027 349342020 349342024#2 349342024#3 349342023#1 349342021 85553224 548355067#1 349342046 349342047#2 -345466494#7 -345466494#6 -345466494#5 -345466494#4 -345466494#3 -345466494#2 -345466494#1 -345466494#0 -85553222#0 -364696614#2 -364696614#1 -364696614#0 -364696613 -345466489#4 -345466489#3 -345466489#2 -345466489#1 -345466489#0 -640292247 -447395504#1 -447395504#0 -133601380#1 -133601380#0 -133601385 -364696612#1 -364696612#0 -414671812#2 -414671812#1 -414671812#0 -414671813 -345466488#2 -345466488#1 -345466488#0 -413849014 -548170875#2 -548170875#1 -548170875#0 -235510009#1 -235510009#0 -241818759#2 -241818759#1 -241818759#0 -241818758 -239137896 -239137895 -162712309#3 -162712309#2 -162712309#0 -237019871#1 -237019871#0 -548170871 -244269730#1 -244269730#0 -398705956#1 -603966582 -398705957 -603966583#0 -587038492 -388761356#2 -388761356#1 -388761356#0 -244269728#3 -244269728#2 -244269728#0 -244269727#6 -244269727#5 -244269727#4 -244269727#3 -244269727#1 -244269727#0 -238850631#10 -238850631#9 -238850631#8 -238850631#7 -238850631#6 -238850631#5 -238850631#4 -238850631#3 -238850631#2 -238850631#1 -238850631#0 -587038493#2 -587038493#1 -587038493#0 -587038490#0 -185755252#5 -185755252#4 -185755252#3 -185755252#2 -185755252#0 -133601387#4 -133601387#3 -133601387#2 -133601387#0 35868930 150094454 35868929 -316486956#18 -316486956#17 -316486956#15 -316486956#14 -316486956#13 -316486956#12 -316486956#11 -316486956#10 -316486956#9 -316486956#8 -316486956#7 -316486956#6 -316486956#5 -316486956#4 -316486956#3 -316486956#2 -316486956#1 -316486956#0 -441873466 -316486952 -150094455 -316486953 -441873465#1 -441873465#0 -128169341#1 -128169341#0 35868764 504077030 504077028 504077025 128169814 -263467786 -548169300 -516240467#2 -516240467#1 -516240467#0 -39538846#0 -114394097 -114394100#1 114394100#1 "/>
</vehicle>
<vehicle id="car2" type="carType1" depart="1">
<route edges="16706270#2 -54106004 -16706270#1 -16706270#0 -4782641#11 -4782641#10 -4782641#9 -4782641#8 -4782641#7 -4782641#6 -4782641#5 -4782641#4 -4782641#3 -4782641#2 -4782641#1 -4782641#0 -570084252#0 -4782640#9 -4782640#8 -4782640#7 -4782640#6 -4782640#5 -4782640#4 -4782640#2 -4782640#1 -4782640#0 117556132#0 117556132#1 117556132#2 616394828#1 8396913#0 8396913#1 205861602 205861596 4360606 326019958#1 326019958#2 326019958#3 326019958#4 326019958#5 326019958#6 326019958#7 326019958#8 326019954 237996158#0 237996158#1 326019937 571402092 326019929 4351785#0 4351785#1 237996164#0 237996164#1 326019970#1 26528514#1 26528514#2 117555993#0 117555993#1 570543852#1 570543850 238081999 27837457 323918189 24271056 323918204 555821070 335052291#0 323918205#0 323918205#2 301633282 323918155 323918156 323918151 4098599#0 4098599#1 301633273 530585737#0 530585737#1 530585738#0 530585738#1 530585738#2 471498385 471498384 323918206 521276141#0 521276141#1 521276141#2 556136413 572329935 127719557#7 127719557#0 127719557#1 127719553 572329933 556136412#0 556136412#1 521276142#0 521276142#1 521276142#2 521276143 188822462#1 188822462#2 188822462#3 562453422#1 562453422#2 562453422#3 521313792#1 298806071 565150432-AddedOnRampEdge 565150432 565150433 565150434 565539878 565539880 565539887 565539888 565930294 565930295 565930296 565930297 565930307 81109352 565930308 565930309 566142197 147962529 566142198 566142199 577610228 566142201 566142202 566142203 577610197 566312573 566784288 566784289 435061604 435061602 435061602-AddedOffRampEdge 435059230 550260071#0 550260071#1 -212739834 -435059227 -435063027 -102734884#1 -102734884#0 "/>
</vehicle>
<vehicle id="car3" type="carType1" depart="1">
<route edges="-212739838 212739838 435059228 429375433 551232115 25937815#1-AddedOnRampEdge 25937815#1 435059931 435059930 577610178 563820676 564004075 564004076 577610214 564004078 564098602 564098603 564098605 564098606 482809860 564098607 565148650 117589390 81109351 565148654 565148655 565148657 563145676 565148658 565148659 565148660 564359189 565148663 565148664 541768470 25938163 565148667 565148666 521308669 -521313794 -25938172 -25938171 -562451234 -521313792#1 -562453422#3 -562453422#2 -562453422#1 -188822462#3 -188822462#2 -188822462#1 -188822462#0 -521276142#2 -521276142#1 -521276142#0 -107174236 -556136412#0 -572329933 572329934 127719557#3 127719557#4 127719557#5 572329936 -556136413 -521276141#2 -521276141#1 -521276141#0 -323918206 -471498384 -471498385 -530585738#2 -530585738#1 -530585738#0 -530585737#1 -530585737#0 -301633273 301633289#0 301633289#1 324785189 24271055#0 24271055#1 301633308#0 301633308#1 301633308#2 301633308#3 541385128#0 587766292 323918230 677166646 579350048#0 579350048#1 323918229 580416761#0 580416761#1 579350049 579350050 579350052 582502142 335049596 192999969#0 192999969#1 582502144#0 582502144#1 582502144#2 582502144#3 582502144#4 65725597#0 65725597#1 65725597#2 65725597#3 323918272#0 323918272#1 323918272#4 150894719 323918243#0 323918243#1 323918243#2 323918243#4 323918243#5 151988539 151988546#0 151988546#1 151988546#2 151988546#3 323918159 541385129 471522263#0 471522263#1 471522263#2 587766291 587766290 587766289 587766288 323918158#0 289301088 587766287 582502145 582502146 587766286#0 587766286#1 582502147 289301087#1 338940092#0 338940092#1 338940090#1 338863901#0 338863901#1 "/>
</vehicle>
<vehicle id="car4" type="carType2" depart="2">
<route edges="8105944-AddedOffRampEdge 8105951 25635026 8105962 25635212#0 25635214 25635216 179609064 179363189#0-AddedOnRampEdge 179363189#0 179363189#0-AddedOffRampEdge 179363189#1 126784245 6116223 170211659 549426463 34923072 170212362 170207234 170212982 7988529 170019205 7988530 -7988485 -8109759 -292058177 -170019199 -170019196 -170019195 -292058173 24305505 548883609 548883608 548883607#0 548883607#1 212796584#1 660887502 623882619#0 623882619#1 202078190 660887508 191115836 "/>
</vehicle>
<vehicle id="car5" type="carType2" depart="2">
<route edges="-26237289#13 -26237289#12 -26237289#11 -26237289#10 -26237289#9 -26237289#8 -26237289#7 -26237289#6 -26237289#5 -26237289#4 -26237289#3 -26237289#2 -26237289#0 -512969545 -512969546#1 -512969546#0 -26237290#1 -26237290#0 -512970922#2 -512970922#1 -512970922#0 -287372772 281215818 281215814 281831352#0 281831352#1 28109089#0 28109089#2 514110642 319392076#0 319392076#1 319392076#2 319392077 451477035 451477032#0 451477032#1 319391863#2 319391863#3 319391863#4 319391863#5 25937652#0 25937652#1-AddedOnRampEdge 25937652#1 25937652#2 557674794#1-AddedOnRampEdge 557674794#1 577610116 435061599 435061603 435059931 435059930 577610178 563820676 564004075 564004076 577610214 564004078 564098602 564098603 564098605 564098606 482809860 564098607 565148650 117589390 81109351 565148654 565148655 565148657 563145676 565148658 565148659 565148660 564359189 565148663 565148664 541768470 25938198 615571411 615571415 615571426 615571419 615571432 615571439 615571447 615571451 615571455 615571463 578599979 81115726 81114940 578599978 578599987 578599988 344450794 344450788 344450790 342759157 38090951 344450787#0 344450787#1 344450802 344450786 578603841 228040095 344450797 81114937 578605734 578605733 344450803 578605741 344450795 578605742 558229640 558229641 558229646 558229647 344450801 344450804 578624505 578624504 344450792 344450796 309267176 344450793 578634121 578634122 344480862 344480865 578634141 344480856 578634144 578634145 558229648 344480868 25939587 25939587-AddedOffRampEdge 666248774 352997977 578634150 578634152 578634158 578634153#0 578634153#1 578634153#2 157102729#0 157102729#1 157102729#2 157102729#3 157102729#4 448638440#0 448638440#1 448638440#2 448638440#3 448638440#4 -325154125 -24436826#2 -24436826#1 -24436826#0 -62069940#7 -62069940#6 -62069940#5 -62069940#4 -62069940#3 -62069940#2 -62069940#1 -62069940#0 -53638680#1 -53638680#0 51260765#0 51260765#1 201101930#0 201101930#1 201101930#2 201101930#3 201101930#4 201101930#5 201101930#6 187799255#1 187799255#2 187799255#3 187799255#4 -201101936#0 -448318990#5 -448318990#3 -448318990#2 -448318990#1 -448318990#0 -520947940#2 -520947940#1 -520947940#0 -520947931#1 -520947931#0 -310712450#9 -310712450#7 -310712450#6 -310712450#5 -310712450#4 -310712450#2 -310712450#1 -310712450#0 -563605071#4 -563605071#3 -563605071#2 -563605071#1 -563605071#0 -448319748 -62069943#5 -62069943#4 -62069943#3 -62069943#1 -62069943#0 -62069935 -548355064#1 -548355064#0 -310047751#2 -310047751#1 -310047751#0 -310692285 -310692286 -199193734 -62069936#1 -62069936#0 -548355080#4 -548355080#3 -548355080#2 -548355080#0 -185750212#1 -185750212#0 -329777429 -310793347 -395516610 -185750211 -395516611 -349342029 -349342030 -349342026 -349342018#1 -349342018#0 -349342022 -349342028 -349342025#0 -61121195#3 -61121195#2 -61121195#1 -61121195#0 -548355073 -349342037#1 -349342037#0 -448305748 -349342036#3 -349342036#2 -349342036#1 -349342036#0 -61121200 157763133 349342038 32797604 61121196#0 61121196#1 61121196#2 544418936#0 544418936#1 61121198#0 61121198#1 349342027 349342020 349342024#2 349342024#3 349342023#1 349342021 85553224 548355067#1 349342046 349342047#2 -345466494#7 -345466494#6 -345466494#5 -345466494#4 -345466494#3 -345466494#2 -345466494#1 -345466494#0 -85553222#0 -364696614#2 -364696614#1 -364696614#0 -364696613 -345466489#4 -345466489#3 -345466489#2 -345466489#1 -345466489#0 -640292247 -447395504#1 -447395504#0 -133601380#1 -133601380#0 -133601385 -364696612#1 -364696612#0 -414671812#2 -414671812#1 -414671812#0 -414671813 -345466488#2 -345466488#1 -345466488#0 -413849014 -548170875#2 -548170875#1 -548170875#0 -235510009#1 -235510009#0 -241818759#2 -241818759#1 -241818759#0 -241818758 -239137896 -239137895 -162712309#3 -162712309#2 -162712309#0 -237019871#1 -237019871#0 -548170871 -244269730#1 -244269730#0 -398705956#1 -603966582 -398705957 -603966583#0 -587038492 -388761356#2 -388761356#1 -388761356#0 "/>
</vehicle>
<vehicle id="car6" type="carType2" depart="2">
<route edges="-183943734 -27864615#4 -27864615#3 -27864615#2 -27864615#1 -27864615#0 -27864627#11 -27864627#10 -27864627#9 -27864627#8 -27864627#7 -27864627#5 -27864627#4 -27864627#3 -27864627#2 -27864627#1 -27864627#0 -183198995#2 -183198995#1 -183198995#0 -563130512 -168192268#1 -168192268#0 -168192279#1 -168192279#0 -563130514 -102735151#3 -102735151#2 -102735151#0 -122826812 -102735095#1 -102735095#0 -212739837#0 -122826809 610841677#1 610841677#2 -435057615 -557116398 -122826816 551232113#1 551232113#2 551232113#3 25937815#0 25937815#1-AddedOnRampEdge 25937815#1 435059931 435059930 577610178 563820676 564004075 564004076 577610214 564004078 564098602 564098603 564098605 564098606 482809860 564098607 565148650 117589390 81109351 565148654 565148655 565148657 563145676 565148658 565148659 565148660 564359189 565148663 565148664 541768470 25938198 615571411 615571415 615571426 615571419 615571432 615571439 615571447 615571451 615571455 615571463 578599979 81115726 81114940 578599978 578599987 578599988 344450794 344450788 344450790 342759157 38090951 344450787#0 344450787#1 344450802 344450786 578603841 228040095 344450797 81114937 578605734 578605733 344450803 578605741 344450795 578605742 558229640 558229641 558229646 558229647 344450801 344450804 578624505 578624504 344450792 344450796 309267176 344450793 578634121 578634122 344480862 344480865 578634141 344480856 578634144 578634145 558229648 344480868 344480863 558229649 576920605 578634160 344480869 344480866 25940334 115892970 442865388 344480858 4395807 344480854 344480854-AddedOffRampEdge 18595171 445531705 89090066-AddedOnRampEdge 89090066 18595354 300304894 18595033 135882017 300304856 184793273 103505372 300304821 300304829 576920643#2 576920642 62072993#0 62072993#1 62072993#2 184793284 576920621 576920644 28086111 301972686 451636083 62169816 "/>
</vehicle>
<vehicle id="car7" type="carType0" depart="3">
<route edges="606413492#1 -606413492#1 -606413492#0 -563142489#0 -579956647 -563142490 -579956643 -579956645 -563142491 -579956651 -579956648 -579956662#1 -579956662#0 -579956659 -579956660 -25937231#2 -25937231#1 -25937231#0 -564391537#1 -564391537#0 -444571076 25937207#1 25937207#2 81076163 563599144 563464590 563464589 563464591 563464592 577548290#1 563464593 563464594 563464595 563464596 563619030 563619029 563619031 563619032 563619035 563298754 563298761 563619036 568644500 568644501 568644502 568644503#0 568644503#1 563820672 26277016 557674794#0 557674794#1-AddedOnRampEdge 557674794#1 577610116 435061599 435061603 435059931 435059930 577610178 563820676 564004075 564004076 577610214 564004078 564098602 564098603 564098605 564098606 482809860 564098607 565148650 117589390 81109351 565148654 565148655 565148657 563145676 565148658 565148659 565148660 564359189 565148663 565148664 541768470 25938198 615571411 615571415 615571426 615571419 615571432 615571439 615571447 615571451 615571455 615571463 578599979 81115726 81114940 578599978 578599987 578599988 344450794 344450788 344450790 342759157 38090951 344450787#0 344450787#1 344450802 344450786 578603841 228040095 344450797 81114937 578605734 578605733 344450803 578605741 344450795 578605742 558229640 558229641 558229646 558229647 344450801 344450804 578624505 578624504 344450792 344450796 309267176 344450793 578634121 578634122 344480862 344480865 578634141 344480856 578634144 578634145 558229648 344480868 25939587 25939587-AddedOffRampEdge 666248774 352997977 578634150 578634152 578634158 578634153#0 578634153#1 578634153#2 157102729#0 157102729#1 157102729#2 157102729#3 157102729#4 448638440#0 448638440#1 448638440#2 448638440#3 448638440#4 -325154125 -24436826#2 -24436826#1 -24436826#0 -62069940#7 -62069940#6 -62069940#5 -62069940#4 -62069940#3 -62069940#2 -62069940#1 -62069940#0 -53638680#1 -53638680#0 51260765#0 51260765#1 201101930#0 201101930#1 201101930#2 201101930#3 201101930#4 201101930#5 201101930#6 187799255#1 187799255#2 187799255#3 187799255#4 -201101936#0 -448318990#5 -448318990#3 -448318990#2 -448318990#1 -448318990#0 -520947940#2 -520947940#1 -520947940#0 -520947931#1 "/>
</vehicle>
<vehicle id="car8" type="carType2" depart="3">
<route edges="45902901#1 522452274 522452273 522452272 522452270 522452269 102734911 522452278 522452277 522452276 288160824#0 288160824#1 -548732384#1 -548732384#0 -248482605#1 -248482605#0 248482604#0 248482604#1 -429375450 -429375451#3 -429375451#2 -429375451#1 -429375451#0 -117416018#1 -117416018#0 117416024 577610221 577610218 577610222 117416023 212739782#1-AddedOnRampEdge 212739782#1 117410850 564098602 564098603 564098605 564098606 482809860 564098607 565148650 117589390 81109351 565148654 565148655 565148657 563145676 565148658 565148659 565148660 564359189 565148663 565148664 541768470 25938198 615571411 615571415 615571426 615571419 615571432 615571439 615571447 615571451 615571455 615571463 578599979 81115726 81114940 578599978 578599987 578599988 344450794 344450788 344450790 342759157 38090951 344450787#0 344450787#1 344450802 344450786 578603841 228040095 344450797 81114937 578605734 578605733 344450803 578605741 344450795 578605742 558229640 558229641 558229646 558229647 344450801 344450804 578624505 578624504 344450792 344450796 309267176 344450793 578634121 578634122 344480862 344480865 578634141 344480856 578634144 578634145 558229648 344480868 25939587 25939587-AddedOffRampEdge 666248774 352997977 578634150 578634152 578634158 578634153#0 578634153#1 578634153#2 157102729#0 157102729#1 157102729#2 157102729#3 157102729#4 448638440#0 448638440#1 448638440#2 448638440#3 448638440#4 -325154125 -24436826#2 -24436826#1 -24436826#0 -62069940#7 -62069940#6 -62069940#5 -62069940#4 -62069940#3 -62069940#2 -62069940#1 -62069940#0 -53638680#1 -53638680#0 51260765#0 51260765#1 201101930#0 201101930#1 201101930#2 201101930#3 201101930#4 201101930#5 201101930#6 187799255#1 187799255#2 187799255#3 187799255#4 -201101936#0 -448318990#5 -448318990#3 -448318990#2 -448318990#1 -448318990#0 -520947940#2 -520947940#1 -520947940#0 -520947931#1 -520947931#0 -310712450#9 -310712450#7 -310712450#6 -310712450#5 -310712450#4 -310712450#2 -310712450#1 -310712450#0 -563605071#4 -563605071#3 -563605071#2 -563605071#1 -563605071#0 -448319748 -62069943#5 -62069943#4 -62069943#3 -62069943#1 -62069943#0 -62069935 -548355064#1 -548355064#0 -310047751#2 -310047751#1 -310047751#0 -310692285 -310692286 -199193734 -62069936#1 -62069936#0 -548355080#4 -548355080#3 -548355080#2 -548355080#0 -185750212#1 -185750212#0 -329777429 -310793347 -395516610 -185750211 -395516611 -349342029 -349342030 -349342026 -349342018#1 -349342018#0 -349342022 -349342028 -349342025#0 -61121195#3 -61121195#2 -61121195#1 -61121195#0 -548355073 -349342037#1 -349342037#0 -448305748 -349342036#3 -349342036#2 -349342036#1 -349342036#0 -61121200 157763133 349342038 32797604 61121196#0 61121196#1 61121196#2 544418936#0 544418936#1 61121198#0 61121198#1 349342027 349342020 349342024#2 349342024#3 349342023#1 349342021 85553224 548355067#1 349342046 349342047#2 -345466494#7 -345466494#6 -345466494#5 -345466494#4 -345466494#3 -345466494#2 -345466494#1 -345466494#0 -85553222#0 -364696614#2 -364696614#1 -364696614#0 -364696613 -345466489#4 -345466489#3 -345466489#2 -345466489#1 -345466489#0 -640292247 -447395504#1 -447395504#0 -133601380#1 -133601380#0 -133601385 -364696612#1 -364696612#0 -414671812#2 -414671812#1 -414671812#0 -414671813 -345466488#2 -345466488#1 -345466488#0 -413849014 -548170875#2 -548170875#1 -548170875#0 -235510009#1 -235510009#0 -241818759#2 -241818759#1 -241818759#0 -241818758 -239137896 -239137895 -162712309#3 -162712309#2 -162712309#0 -237019871#1 -237019871#0 -548170871 -244269730#1 -244269730#0 -398705956#1 -603966582 -398705957 -603966583#0 -587038492 -388761356#2 -388761356#1 -388761356#0 -244269728#3 -244269728#2 -244269728#0 -244269727#6 -244269727#5 -244269727#4 -244269727#3 -244269727#1 -244269727#0 -238850631#10 -238850631#9 -238850631#8 -238850631#7 -238850631#6 -238850631#5 -238850631#4 -238850631#3 -238850631#2 -238850631#1 -238850631#0 -587038493#2 -587038493#1 -587038493#0 -587038490#0 -185755252#5 -185755252#4 -185755252#3 -185755252#2 -185755252#0 -133601387#4 -133601387#3 -133601387#2 -133601387#0 35868930 150094454 35868929 -316486956#18 -316486956#17 -316486956#15 -316486956#14 -316486956#13 -316486956#12 -316486956#11 -316486956#10 -316486956#9 -316486956#8 -316486956#7 -316486956#6 -316486956#5 -316486956#4 -316486956#3 -316486956#2 -316486956#1 -316486956#0 -441873466 -316486952 -150094455 -316486953 -441873465#1 -441873465#0 -128169341#1 -128169341#0 35868764 504077030 504077028 504077025 128169814 -263467786 -548169300 -516240467#2 -516240467#1 -516240467#0 -39538846#0 -114394097 -114394100#1 -114394100#0 -252543198#1 -252543198#0 -106936384 -106936403 -39538848#1 -39538848#0 -106936389 -547658298#0 -503595827#3 -503595827#2 -503595827#0 503595825 503595838#0 503595838#1 503595838#2 503595830#0 503595830#1 -378956880 -401109078 -401109077 -378956881 -389799312#0 -263467752#1 -263467752#0 -25960112#7 -25960112#6 -25960112#3 -25960112#2 -25960112#1 -25960112#0 -188955930 -63682645#1 -63682645#0 -133954089 -63682650 -550132816 -550132817#1 -550132817#0 -550132810 -550132811 -550132807 -114067923#1 -114067923#0 -550132808#2 550132808#2 "/>
</vehicle>
<vehicle id="car9" type="carType0" depart="4">
<route edges="482993247#1 482993247#2 482993247#3 39629399#0 39629399#2 39629399#3 39629399#5 39629399#6 39629399#7 39629399#8 39629399#9 39629399#10 39629399#11 39629399#12 35921018#0 35921018#2 35921018#3 547326545#0 547326545#1 547326545#2 547326545#3 445664833 482993248#0 482993248#1 243405207#0 520637724 420983066#1 476122441 476122443 592775620#1 592775620#2 592775620#3 35550233#0 35550233#1 35550233#2 35550233#4 276827278 -386910211#0 189763515#1 592775598 35550231 35550230 242606233 26495938#0 26495938#1 39692207#0 39692207#1 39692207#2 39692207#3 242606230 592775546 445665559 548446460 445665560 35550227#0 35550227#1 35550227#2 35550227#4 35550227#6 35550227#7 35550227#8 35550227#9 201389083#0 201389083#1 201389083#2 201389083#3 201389083#4 -201389083#4 "/>
</vehicle>
<vehicle id="car10" type="carType2" depart="4">
<route edges="-546681518#12 -546681518#11 -546681518#10 -546681518#9 -546681518#8 -546681518#7 -546681518#6 -546681518#5 -546681518#4 -546681518#3 -546681518#1 -546681518#0 -116814094 -117503747#2 -117503747#1 -117503747#0 -546681513#8 -546681513#7 -546681513#6 -546681513#5 -546681513#4 -546681513#3 -546681513#2 -546681513#1 -546681513#0 -287202486#2 -287202486#1 -287202486#0 -334970705 -287202485 -592775563 -287202343#0 -546681510#7 -546681510#6 -546681510#5 -546681510#4 -546681510#3 -546681510#1 -546681510#0 -280713240#1 -280713240#0 -281995213 -281841162#2 -281841162#1 -281841162#0 -281995214#3 -281995214#2 -281995214#1 -281995214#0 -240356790#4 -240356790#3 -240356790#2 -240356790#1 -240356790#0 -240356791#6 -240356791#5 -240356791#4 -240356791#3 -240356791#2 -240356791#1 -240356791#0 -117503771#9 -117503771#8 -117503771#7 -117503771#6 -117503771#5 -117503771#4 -117503771#3 -117503771#2 -117503771#1 -117503771#0 -282045830#2 -282045830#1 -282045830#0 -281841164#3 -281841164#2 -281841164#1 -281841164#0 -281841159 -286784345#10 -286784345#9 -286784345#8 -286784345#7 -286784345#6 -286784345#5 -286784345#4 -286784345#3 -286784345#2 -286784345#1 -286784345#0 -217332887#0 -610636871 -610636869#5 -610636869#4 -610636869#3 -610636869#2 -610636869#1 -610636869#0 -215196289#7 -215196289#4 -215196289#3 -215196289#2 -215196289#1 -215196289#0 -611893422#2 -611893422#1 -611893422#0 -611893423#1 -611893423#0 -576920613#1 -576920613#0 -576920607#0 -586646577#2 -586646577#1 -586646577#0 586646578#0 586646578#1 586646578#2 -576920614 586443670#0 586443670#1 586646574 586443668#0 586443668#1 -215195577#4 -215195577#3 -215195577#2 -215195577#1 -215195577#0 -215195575 -217936845#0 -217936844#1 -217936844#0 -610636865#1 -610636865#0 -610636868 -217332886 -546681508 -546681509 -621797902 -570069835#3 -570069835#2 -570069835#1 -570069835#0 -570069832#2 -570069832#1 -570069832#0 -570069834 -621797550#2 -621797550#1 -621797550#0 -570069829 -205945745#1 -205945745#0 -621797549 -542826609 -172189951#1 -172189951#0 -172189957 -570069826 -548412297#1 -548412297#0 -548412295#0 -397255377 -545329479 -397255371 -610562355 -545329478 -172189963 -245958736 -610562353 -619107428 -619107427 -548420164 -548420167 -205945747 -431436682 -499971033 -592775604#3 -592775604#2 -592775604#1 -592775604#0 -13263311#3 -13263311#2 -13263311#1 -13263311#0 -592775599 -445668890#2 -445668890#1 -445668890#0 25697667#2 150094735 150094742 150094732 -201389083#6 -201389083#5 -201389083#4 -201389083#3 -201389083#2 -201389083#1 -201389083#0 -35550227#9 -35550227#8 -35550227#7 -35550227#6 -35550227#4 -35550227#2 -35550227#1 -35550227#0 -445665560 -548446460 -445665559 -222882865 -242606230 -39692207#3 -39692207#2 -39692207#1 -39692207#0 -26495938#1 -26495938#0 -242606233 -35550230 -35550231 -592775598 -189763515#1 -189763515#0 -276827278 -35550233#4 -35550233#2 -35550233#1 -35550233#0 -592775620#4 -592775620#2 -592775620#1 476122442 -476122441 -420983066#1 -420983066#0 -243405207#0 -482993248#1 -482993248#0 -445664833 -547326545#3 -547326545#2 -547326545#1 -547326545#0 -35921018#3 -35921018#2 -35921018#0 -39629399#12 -39629399#11 -39629399#10 -39629399#9 -39629399#8 -39629399#7 -39629399#6 -39629399#5 -39629399#3 -39629399#2 -39629399#0 -482993247#3 -482993247#2 -482993247#1 -482993247#0 -550402566 -545730201 -308930227 -35921016#1 -35921016#0 -675990811 -675990814 -308930303 -97646150#2 -97646150#1 -97646150#0 -215481626 -215481625 -481472887#3 -481472887#2 -481472887#1 -481472887#0 -205849209#1 -205849209#0 -596024241 -596024261 -154128542#6 -154128542#5 -154128542#4 -154128542#3 -154128542#2 -154128542#1 -154128542#0 -327920603 -150094746#4 -150094746#3 -150094746#2 -150094746#1 150094746#1 "/>
</vehicle>
<vehicle id="car11" type="carType2" depart="4">
<route edges="-275898333#0 -275898332#1 -275898332#0 -563142482 -304430364#1 -304430364#0 304430369#0 304430369#1 370645609 370645601 354784306 451366779 451366794 451366784 451366793 354784278 451366795 354784273 354784265 451366773 451366775 170982238 170982238-AddedOffRampEdge 451477067 354237870-AddedOnRampEdge 354237870 451477072 451477075 451477060 451477048 451477048-AddedOffRampEdge 144171758 585434253-AddedOnRampEdge 585434253 585434253-AddedOffRampEdge 377027089 25937652#1-AddedOnRampEdge 25937652#1 25937652#2 557674794#1-AddedOnRampEdge 557674794#1 577610116 435061599 435061603 435059931 435059930 577610178 563820676 564004075 564004076 577610214 27832848 623868485 -132113009#5 -132113009#4 -132113009#3 -132113009#2 -132113009#1 -132113009#0 -563122310#0 -123205476#10 -123205476#9 -123205476#8 -123205476#7 -123205476#6 -123205476#5 -123205476#4 -123205476#3 -123205476#2 -123205476#1 -123205476#0 -446729611 -549386738 -446729612 -446729614#1 -446729614#0 -123205475 -610262968 -446729613 -549386737 -563122309#7 -563122309#6 -563122309#5 -563122309#4 -563122309#3 -563122309#2 -563122309#1 -563122309#0 -178991951#4 -178991951#3 -178991951#2 -178991951#1 -178991951#0 -178991950 -123210920 -308974071#2 -308974071#1 -308974071#0 -308974074 -308974072 -123210921#6 -123210921#5 -123210921#4 -123210921#3 -123210921#2 -123210921#1 -123210921#0 -563122308#2 -563122308#1 -563122308#0 -563122306#8 -563122306#7 -563122306#6 -563122306#5 -563122306#4 -563122306#3 -563122306#2 -563122306#1 "/>
</vehicle>
<vehicle id="car12" type="carType1" depart="6">