<?xml version="1.0" encoding="UTF-8"?>

<!-- generated on 03/10/19 17:25:37 by Eclipse SUMO Version 1.1.0
-->

<configuration xmlns:xsi="http://www.w3.org/2001/XMLSchema-instance" xsi:noNamespaceSchemaLocation="http://sumo.dlr.de/xsd/sumoConfiguration.xsd">

    <input>
        <net-file value="patched.net.xml"/>
        <route-files value="gen0.rou.xml"/>
    </input>

</configuration>
