<routes>
<vType id="carType0" length="4" maxSpeed="50.94" accel="2.62" decel="5.76" speedDev="0.2" sigma="0.15"/>
<vType id="carType1" length="4" maxSpeed="56.61" accel="2.83" decel="4.77" speedDev="0.2" sigma="0.23"/>
<vType id="carType2" length="3" maxSpeed="51.84" accel="2.62" decel="4.63" speedDev="0.2" sigma="0.11"/>
<flow id="car0" type="carType2" from="-gneE7" to="gneE9" begin="0" end="0" number="1"/>
<flow id="car1" type="carType1" from="topleftR" to="gneE43" begin="1" end="1" number="1"/>
<flow id="car2" type="carType0" from="-gneE18" to="-gneE45" begin="2" end="2" number="1"/>
<flow id="car3" type="carType0" from="-gneE43" to="-gneE34" begin="2" end="2" number="1"/>
<flow id="car4" type="carType1" from="topleftD" to="-gneE7" begin="2" end="2" number="1"/>
<flow id="car5" type="carType1" from="-gneE50" to="bottomrightU" begin="4" end="4" number="1"/>
<flow id="car6" type="carType1" from="bottomrightU" to="gneE9" begin="5" end="5" number="1"/>
<flow id="car7" type="carType2" from="gneE44" to="topleftR" begin="8" end="8" number="1"/>
<flow id="car8" type="carType1" from="gneE29" to="gneE21" begin="9" end="9" number="1"/>
<flow id="car9" type="carType0" from="-gneE28" to="gneE27" begin="9" end="9" number="1"/>
<flow id="car10" type="carType0" from="-gneE13" to="-gneE43" begin="10" end="10" number="1"/>
<flow id="car11" type="carType2" from="gneE18" to="-gneE49" begin="10" end="10" number="1"/>
<flow id="car12" type="carType0" from="gneE51" to="-gneE43" begin="10" end="10" number="1"/>
<flow id="car13" type="carType2" from="gneE28" to="gneE18" begin="11" end="11" number="1"/>
<flow id="car14" type="carType1" from="gneE9" to="gneE49" begin="11" end="11" number="1"/>
<flow id="car15" type="carType2" from="gneE18" to="-gneE49" begin="11" end="11" number="1"/>
<flow id="car16" type="carType1" from="-gneE48" to="-gneE34" begin="13" end="13" number="1"/>
<flow id="car17" type="carType1" from="gneE49" to="topleftR" begin="14" end="14" number="1"/>
<flow id="car18" type="carType0" from="gneE49" to="gneE46" begin="14" end="14" number="1"/>
<flow id="car19" type="carType1" from="gneE18" to="gneE49" begin="14" end="14" number="1"/>
<flow id="car20" type="carType1" from="gneE46" to="-gneE43" begin="16" end="16" number="1"/>
<flow id="car21" type="carType1" from="-gneE8" to="-gneE49" begin="18" end="18" number="1"/>
<flow id="car22" type="carType1" from="gneE48" to="gneE46" begin="18" end="18" number="1"/>
<flow id="car23" type="carType2" from="-gneE8" to="gneE44" begin="19" end="19" number="1"/>
<flow id="car24" type="carType2" from="gneE28" to="-gneE37" begin="19" end="19" number="1"/>
<flow id="car25" type="carType1" from="gneE51" to="-gneE51" begin="21" end="21" number="1"/>
<flow id="car26" type="carType1" from="bottomrightL" to="gneE49" begin="21" end="21" number="1"/>
<flow id="car27" type="carType2" from="toprightL" to="gneE44" begin="22" end="22" number="1"/>
<flow id="car28" type="carType0" from="gneE46" to="bottomrightU" begin="23" end="23" number="1"/>
<flow id="car29" type="carType1" from="gneE34" to="gneE8" begin="24" end="24" number="1"/>
<flow id="car30" type="carType0" from="gneE29" to="toprightD" begin="25" end="25" number="1"/>
<flow id="car31" type="carType2" from="-gneE13" to="gneE42" begin="26" end="26" number="1"/>
<flow id="car32" type="carType1" from="gneE50" to="gneE8" begin="27" end="27" number="1"/>
<flow id="car33" type="carType0" from="-gneE21" to="-gneE21" begin="28" end="28" number="1"/>
<flow id="car34" type="carType2" from="-gneE13" to="gneE34" begin="29" end="29" number="1"/>
<flow id="car35" type="carType0" from="-gneE43" to="gneE37" begin="29" end="29" number="1"/>
<flow id="car36" type="carType2" from="gneE48" to="-gneE44" begin="30" end="30" number="1"/>
<flow id="car37" type="carType2" from="gneE35" to="gneE43" begin="33" end="33" number="1"/>
<flow id="car38" type="carType1" from="bottomleftR" to="-gneE45" begin="34" end="34" number="1"/>
<flow id="car39" type="carType1" from="-gneE21" to="-gneE7" begin="34" end="34" number="1"/>
<flow id="car40" type="carType2" from="-gneE44" to="gneE43" begin="34" end="34" number="1"/>
<flow id="car41" type="carType0" from="gneE29" to="bottomrightU" begin="36" end="36" number="1"/>
<flow id="car42" type="carType0" from="-gneE48" to="gneE29" begin="37" end="37" number="1"/>
<flow id="car43" type="carType0" from="-gneE27" to="gneE27" begin="37" end="37" number="1"/>
<flow id="car44" type="carType1" from="-gneE43" to="gneE30" begin="37" end="37" number="1"/>
<flow id="car45" type="carType1" from="-gneE51" to="-gneE34" begin="38" end="38" number="1"/>
<flow id="car46" type="carType0" from="gneE8" to="gneE9" begin="39" end="39" number="1"/>
<flow id="car47" type="carType0" from="topleftR" to="-gneE7" begin="39" end="39" number="1"/>
<flow id="car48" type="carType2" from="-gneE18" to="-gneE7" begin="40" end="40" number="1"/>
<flow id="car49" type="carType0" from="gneE18" to="-gneE48" begin="41" end="41" number="1"/>
<flow id="car50" type="carType2" from="-gneE48" to="-gneE13" begin="41" end="41" number="1"/>
<flow id="car51" type="carType2" from="gneE9" to="-gneE34" begin="41" end="41" number="1"/>
<flow id="car52" type="carType2" from="-gneE43" to="-gneE45" begin="42" end="42" number="1"/>
<flow id="car53" type="carType0" from="-gneE21" to="gneE29" begin="43" end="43" number="1"/>
<flow id="car54" type="carType1" from="gneE9" to="gneE34" begin="43" end="43" number="1"/>
<flow id="car55" type="carType0" from="toprightL" to="bottomrightU" begin="44" end="44" number="1"/>
<flow id="car56" type="carType0" from="gneE9" to="-gneE34" begin="45" end="45" number="1"/>
<flow id="car57" type="carType2" from="gneE48" to="-gneE43" begin="49" end="49" number="1"/>
<flow id="car58" type="carType0" from="-gneE7" to="bottomleftU" begin="49" end="49" number="1"/>
<flow id="car59" type="carType2" from="gneE30" to="-gneE29" begin="50" end="50" number="1"/>
<flow id="car60" type="carType0" from="-gneE37" to="topleftD" begin="50" end="50" number="1"/>
<flow id="car61" type="carType0" from="-gneE50" to="gneE37" begin="51" end="51" number="1"/>
<flow id="car62" type="carType2" from="gneE50" to="-gneE28" begin="53" end="53" number="1"/>
<flow id="car63" type="carType0" from="gneE21" to="-gneE51" begin="54" end="54" number="1"/>
<flow id="car64" type="carType1" from="gneE44" to="gneE18" begin="55" end="55" number="1"/>
<flow id="car65" type="carType2" from="-gneE44" to="topleftD" begin="55" end="55" number="1"/>
<flow id="car66" type="carType2" from="-gneE45" to="-gneE8" begin="58" end="58" number="1"/>
<flow id="car67" type="carType2" from="-gneE50" to="-gneE28" begin="59" end="59" number="1"/>
<flow id="car68" type="carType1" from="gneE42" to="gneE21" begin="60" end="60" number="1"/>
<flow id="car69" type="carType0" from="gneE48" to="-gneE8" begin="61" end="61" number="1"/>
<flow id="car70" type="carType0" from="bottomrightL" to="-gneE51" begin="61" end="61" number="1"/>
<flow id="car71" type="carType1" from="topleftR" to="gneE50" begin="62" end="62" number="1"/>
<flow id="car72" type="carType0" from="gneE22" to="bottomleftU" begin="62" end="62" number="1"/>
<flow id="car73" type="carType2" from="gneE35" to="gneE43" begin="62" end="62" number="1"/>
<flow id="car74" type="carType2" from="gneE51" to="gneE42" begin="63" end="63" number="1"/>
<flow id="car75" type="carType2" from="-gneE29" to="gneE28" begin="64" end="64" number="1"/>
<flow id="car76" type="carType0" from="-gneE37" to="gneE9" begin="64" end="64" number="1"/>
<flow id="car77" type="carType1" from="-gneE45" to="-gneE7" begin="65" end="65" number="1"/>
<flow id="car78" type="carType0" from="-gneE7" to="-gneE37" begin="66" end="66" number="1"/>
<flow id="car79" type="carType2" from="gneE8" to="-gneE34" begin="67" end="67" number="1"/>
<flow id="car80" type="carType0" from="gneE34" to="gneE28" begin="67" end="67" number="1"/>
<flow id="car81" type="carType0" from="gneE9" to="gneE50" begin="73" end="73" number="1"/>
<flow id="car82" type="carType1" from="gneE45" to="-gneE51" begin="74" end="74" number="1"/>
<flow id="car83" type="carType1" from="gneE42" to="-gneE8" begin="75" end="75" number="1"/>
<flow id="car84" type="carType1" from="gneE37" to="gneE21" begin="79" end="79" number="1"/>
<flow id="car85" type="carType0" from="bottomrightU" to="-gneE28" begin="81" end="81" number="1"/>
<flow id="car86" type="carType0" from="gneE45" to="gneE22" begin="81" end="81" number="1"/>
<flow id="car87" type="carType1" from="bottomleftU" to="gneE18" begin="81" end="81" number="1"/>
<flow id="car88" type="carType1" from="-gneE8" to="gneE43" begin="84" end="84" number="1"/>
<flow id="car89" type="carType1" from="toprightD" to="-gneE27" begin="86" end="86" number="1"/>
<flow id="car90" type="carType0" from="gneE27" to="bottomrightL" begin="86" end="86" number="1"/>
<flow id="car91" type="carType2" from="-gneE50" to="-gneE18" begin="86" end="86" number="1"/>
<flow id="car92" type="carType1" from="-gneE51" to="gneE48" begin="88" end="88" number="1"/>
<flow id="car93" type="carType1" from="gneE44" to="gneE50" begin="88" end="88" number="1"/>
<flow id="car94" type="carType0" from="toprightL" to="-gneE18" begin="91" end="91" number="1"/>
<flow id="car95" type="carType0" from="gneE29" to="gneE8" begin="92" end="92" number="1"/>
<flow id="car96" type="carType0" from="-gneE50" to="gneE18" begin="93" end="93" number="1"/>
<flow id="car97" type="carType1" from="-gneE45" to="-gneE37" begin="94" end="94" number="1"/>
<flow id="car98" type="carType2" from="gneE34" to="-gneE13" begin="96" end="96" number="1"/>
<flow id="car99" type="carType2" from="gneE45" to="gneE8" begin="97" end="97" number="1"/>
<flow id="car100" type="carType0" from="gneE27" to="-gneE42" begin="97" end="97" number="1"/>
<flow id="car101" type="carType2" from="-gneE45" to="-gneE7" begin="97" end="97" number="1"/>
<flow id="car102" type="carType1" from="-gneE50" to="-gneE29" begin="99" end="99" number="1"/>
<flow id="car103" type="carType1" from="gneE44" to="topleftR" begin="99" end="99" number="1"/>
<flow id="car104" type="carType1" from="gneE30" to="-gneE42" begin="100" end="100" number="1"/>
<flow id="car105" type="carType1" from="gneE51" to="gneE18" begin="102" end="102" number="1"/>
<flow id="car106" type="carType2" from="-gneE28" to="gneE49" begin="102" end="102" number="1"/>
<flow id="car107" type="carType2" from="gneE44" to="gneE30" begin="103" end="103" number="1"/>
<flow id="car108" type="carType1" from="gneE22" to="gneE37" begin="104" end="104" number="1"/>
<flow id="car109" type="carType1" from="bottomrightU" to="bottomleftR" begin="104" end="104" number="1"/>
<flow id="car110" type="carType2" from="-gneE51" to="bottomleftR" begin="104" end="104" number="1"/>
<flow id="car111" type="carType1" from="gneE21" to="gneE51" begin="107" end="107" number="1"/>
<flow id="car112" type="carType0" from="bottomrightU" to="gneE22" begin="107" end="107" number="1"/>
<flow id="car113" type="carType1" from="-gneE51" to="-gneE50" begin="109" end="109" number="1"/>
<flow id="car114" type="carType2" from="gneE44" to="topleftR" begin="109" end="109" number="1"/>
<flow id="car115" type="carType2" from="gneE49" to="gneE51" begin="109" end="109" number="1"/>
<flow id="car116" type="carType0" from="gneE50" to="gneE18" begin="112" end="112" number="1"/>
<flow id="car117" type="carType2" from="gneE49" to="-gneE45" begin="114" end="114" number="1"/>
<flow id="car118" type="carType1" from="-gneE50" to="gneE9" begin="114" end="114" number="1"/>
<flow id="car119" type="carType2" from="-gneE33" to="-gneE49" begin="117" end="117" number="1"/>
<flow id="car120" type="carType0" from="gneE42" to="-gneE44" begin="119" end="119" number="1"/>
<flow id="car121" type="carType1" from="gneE43" to="gneE8" begin="120" end="120" number="1"/>
<flow id="car122" type="carType2" from="-gneE51" to="toprightD" begin="120" end="120" number="1"/>
<flow id="car123" type="carType1" from="-gneE29" to="gneE43" begin="121" end="121" number="1"/>
<flow id="car124" type="carType1" from="gneE27" to="gneE18" begin="121" end="121" number="1"/>
<flow id="car125" type="carType1" from="gneE9" to="-gneE33" begin="122" end="122" number="1"/>
<flow id="car126" type="carType1" from="-gneE33" to="gneE27" begin="122" end="122" number="1"/>
<flow id="car127" type="carType0" from="-gneE43" to="gneE8" begin="122" end="122" number="1"/>
<flow id="car128" type="carType2" from="-gneE44" to="gneE28" begin="124" end="124" number="1"/>
<flow id="car129" type="carType0" from="-gneE37" to="-gneE49" begin="125" end="125" number="1"/>
<flow id="car130" type="carType2" from="topleftD" to="gneE46" begin="127" end="127" number="1"/>
<flow id="car131" type="carType2" from="gneE44" to="gneE49" begin="128" end="128" number="1"/>
<flow id="car132" type="carType2" from="gneE34" to="-gneE45" begin="129" end="129" number="1"/>
<flow id="car133" type="carType1" from="gneE34" to="gneE35" begin="130" end="130" number="1"/>
<flow id="car134" type="carType1" from="-gneE21" to="gneE45" begin="130" end="130" number="1"/>
<flow id="car135" type="carType0" from="bottomleftR" to="bottomleftU" begin="130" end="130" number="1"/>
<flow id="car136" type="carType0" from="-gneE21" to="bottomleftU" begin="131" end="131" number="1"/>
<flow id="car137" type="carType2" from="gneE21" to="gneE46" begin="131" end="131" number="1"/>
<flow id="car138" type="carType1" from="gneE35" to="-gneE42" begin="133" end="133" number="1"/>
<flow id="car139" type="carType0" from="-gneE51" to="-gneE18" begin="136" end="136" number="1"/>
<flow id="car140" type="carType1" from="-gneE49" to="gneE9" begin="136" end="136" number="1"/>
<flow id="car141" type="carType1" from="toprightL" to="gneE21" begin="136" end="136" number="1"/>
<flow id="car142" type="carType1" from="-gneE28" to="gneE35" begin="137" end="137" number="1"/>
<flow id="car143" type="carType0" from="gneE18" to="-gneE21" begin="138" end="138" number="1"/>
<flow id="car144" type="carType1" from="bottomleftU" to="gneE44" begin="140" end="140" number="1"/>
<flow id="car145" type="carType0" from="bottomrightU" to="topleftD" begin="142" end="142" number="1"/>
<flow id="car146" type="carType1" from="gneE29" to="topleftD" begin="142" end="142" number="1"/>
<flow id="car147" type="carType1" from="bottomrightU" to="gneE42" begin="142" end="142" number="1"/>
<flow id="car148" type="carType0" from="-gneE51" to="gneE18" begin="143" end="143" number="1"/>
<flow id="car149" type="carType1" from="-gneE8" to="-gneE29" begin="144" end="144" number="1"/>
<flow id="car150" type="carType2" from="topleftR" to="topleftR" begin="145" end="145" number="1"/>
<flow id="car151" type="carType2" from="gneE44" to="gneE30" begin="146" end="146" number="1"/>
<flow id="car152" type="carType1" from="gneE27" to="gneE46" begin="150" end="150" number="1"/>
<flow id="car153" type="carType1" from="gneE34" to="gneE44" begin="150" end="150" number="1"/>
<flow id="car154" type="carType2" from="-gneE29" to="-gneE33" begin="152" end="152" number="1"/>
<flow id="car155" type="carType1" from="-gneE44" to="gneE35" begin="153" end="153" number="1"/>
<flow id="car156" type="carType1" from="bottomleftR" to="gneE34" begin="153" end="153" number="1"/>
<flow id="car157" type="carType0" from="gneE18" to="topleftD" begin="154" end="154" number="1"/>
<flow id="car158" type="carType1" from="-gneE51" to="bottomrightL" begin="154" end="154" number="1"/>
<flow id="car159" type="carType2" from="-gneE7" to="topleftD" begin="155" end="155" number="1"/>
<flow id="car160" type="carType2" from="-gneE42" to="gneE50" begin="159" end="159" number="1"/>
<flow id="car161" type="carType2" from="gneE29" to="bottomleftU" begin="159" end="159" number="1"/>
<flow id="car162" type="carType1" from="-gneE7" to="gneE9" begin="159" end="159" number="1"/>
<flow id="car163" type="carType0" from="-gneE21" to="-gneE8" begin="160" end="160" number="1"/>
<flow id="car164" type="carType0" from="gneE29" to="-gneE43" begin="162" end="162" number="1"/>
<flow id="car165" type="carType1" from="topleftR" to="-gneE34" begin="162" end="162" number="1"/>
<flow id="car166" type="carType0" from="gneE30" to="topleftD" begin="163" end="163" number="1"/>
<flow id="car167" type="carType1" from="gneE50" to="gneE46" begin="166" end="166" number="1"/>
<flow id="car168" type="carType1" from="gneE27" to="bottomleftU" begin="170" end="170" number="1"/>
<flow id="car169" type="carType0" from="-gneE8" to="topleftD" begin="171" end="171" number="1"/>
<flow id="car170" type="carType2" from="bottomrightU" to="-gneE33" begin="172" end="172" number="1"/>
<flow id="car171" type="carType1" from="gneE21" to="gneE8" begin="173" end="173" number="1"/>
<flow id="car172" type="carType2" from="-gneE51" to="gneE8" begin="173" end="173" number="1"/>
<flow id="car173" type="carType2" from="gneE42" to="-gneE49" begin="174" end="174" number="1"/>
<flow id="car174" type="carType0" from="-gneE45" to="gneE28" begin="175" end="175" number="1"/>
<flow id="car175" type="carType1" from="toprightL" to="-gneE48" begin="175" end="175" number="1"/>
<flow id="car176" type="carType2" from="-gneE7" to="-gneE43" begin="175" end="175" number="1"/>
<flow id="car177" type="carType0" from="topleftR" to="gneE49" begin="177" end="177" number="1"/>
<flow id="car178" type="carType1" from="gneE45" to="gneE29" begin="178" end="178" number="1"/>
<flow id="car179" type="carType0" from="gneE27" to="-gneE7" begin="178" end="178" number="1"/>
<flow id="car180" type="carType2" from="-gneE33" to="gneE48" begin="178" end="178" number="1"/>
<flow id="car181" type="carType1" from="-gneE28" to="gneE45" begin="179" end="179" number="1"/>
<flow id="car182" type="carType1" from="gneE8" to="-gneE29" begin="180" end="180" number="1"/>
<flow id="car183" type="carType1" from="-gneE21" to="gneE45" begin="183" end="183" number="1"/>
<flow id="car184" type="carType2" from="-gneE44" to="topleftR" begin="187" end="187" number="1"/>
<flow id="car185" type="carType1" from="-gneE44" to="-gneE51" begin="187" end="187" number="1"/>
<flow id="car186" type="carType2" from="gneE42" to="gneE30" begin="188" end="188" number="1"/>
<flow id="car187" type="carType1" from="gneE28" to="gneE30" begin="189" end="189" number="1"/>
<flow id="car188" type="carType0" from="-gneE42" to="-gneE43" begin="190" end="190" number="1"/>
<flow id="car189" type="carType1" from="gneE35" to="-gneE18" begin="191" end="191" number="1"/>
<flow id="car190" type="carType0" from="-gneE29" to="gneE21" begin="191" end="191" number="1"/>
<flow id="car191" type="carType1" from="gneE8" to="bottomrightU" begin="192" end="192" number="1"/>
<flow id="car192" type="carType1" from="gneE30" to="topleftD" begin="192" end="192" number="1"/>
<flow id="car193" type="carType2" from="gneE48" to="gneE18" begin="194" end="194" number="1"/>
<flow id="car194" type="carType2" from="gneE46" to="gneE43" begin="195" end="195" number="1"/>
<flow id="car195" type="carType1" from="-gneE13" to="gneE42" begin="197" end="197" number="1"/>
<flow id="car196" type="carType0" from="gneE42" to="gneE43" begin="197" end="197" number="1"/>
<flow id="car197" type="carType1" from="-gneE49" to="gneE44" begin="197" end="197" number="1"/>
<flow id="car198" type="carType1" from="-gneE42" to="bottomleftU" begin="199" end="199" number="1"/>
<flow id="car199" type="carType2" from="-gneE7" to="gneE37" begin="199" end="199" number="1"/>
</routes>
