<routes>
<vType id="carType0" length="6" maxSpeed="52.73" accel="2.98" decel="4.11" speedDev="0.2" sigma="0.12"/>
<vType id="carType1" length="3" maxSpeed="44.43" accel="2.49" decel="5.48" speedDev="0.2" sigma="0.16"/>
<vType id="carType2" length="3" maxSpeed="59.73" accel="2.73" decel="4.38" speedDev="0.2" sigma="0.11"/>
<flow id="car0" type="carType0" from="-231614446" to="169622827#4" begin="1" end="1" number="1"/>
<flow id="car1" type="carType2" from="340099586#1" to="230566773#0" begin="2" end="2" number="1"/>
<flow id="car2" type="carType2" from="295729053" to="-61314990#3" begin="2" end="2" number="1"/>
<flow id="car3" type="carType2" from="620424001#0" to="552831498#0" begin="3" end="3" number="1"/>
<flow id="car4" type="carType2" from="-295857662#0" to="112747263#2" begin="4" end="4" number="1"/>
<flow id="car5" type="carType0" from="295074592#1" to="-229472269" begin="4" end="4" number="1"/>
<flow id="car6" type="carType0" from="337399478#1" to="292344950#1" begin="4" end="4" number="1"/>
<flow id="car7" type="carType1" from="-229785171#1" to="-332329181#1" begin="5" end="5" number="1"/>
<flow id="car8" type="carType1" from="231154842#1" to="-288243826#2" begin="5" end="5" number="1"/>
<flow id="car9" type="carType2" from="-112747273#0" to="559389084" begin="7" end="7" number="1"/>
<flow id="car10" type="carType2" from="57840086#6" to="618798453#0" begin="7" end="7" number="1"/>
<flow id="car11" type="carType2" from="-30572250#0" to="-229690742" begin="9" end="9" number="1"/>
<flow id="car12" type="carType0" from="-288529017#0" to="-337587257#0" begin="9" end="9" number="1"/>
<flow id="car13" type="carType2" from="-229317299" to="323667071#1" begin="12" end="12" number="1"/>
<flow id="car14" type="carType1" from="230554802" to="-608119302#0" begin="13" end="13" number="1"/>
<flow id="car15" type="carType1" from="229907298#3" to="293858472#3" begin="14" end="14" number="1"/>
<flow id="car16" type="carType0" from="99584012#1" to="-494506202#6" begin="15" end="15" number="1"/>
<flow id="car17" type="carType1" from="-57840086#9" to="299911599#1" begin="17" end="17" number="1"/>
<flow id="car18" type="carType1" from="510718793#1" to="-212501026#1" begin="18" end="18" number="1"/>
<flow id="car19" type="carType1" from="-331686558#0" to="-312840487" begin="21" end="21" number="1"/>
<flow id="car20" type="carType2" from="-229587168#0" to="-544115924#1" begin="22" end="22" number="1"/>
<flow id="car21" type="carType0" from="-57840086#9" to="230482609" begin="23" end="23" number="1"/>
<flow id="car22" type="carType1" from="330426700#3" to="362808388#0" begin="23" end="23" number="1"/>
<flow id="car23" type="carType0" from="331593329#0" to="543940442" begin="24" end="24" number="1"/>
<flow id="car24" type="carType1" from="231156587#4" to="-614130430#0" begin="25" end="25" number="1"/>
<flow id="car25" type="carType2" from="276099155#3" to="591044563#3" begin="26" end="26" number="1"/>
<flow id="car26" type="carType0" from="-30572509#1" to="608119302#0" begin="26" end="26" number="1"/>
<flow id="car27" type="carType0" from="169622826#2" to="673214137#2" begin="27" end="27" number="1"/>
<flow id="car28" type="carType0" from="326282721" to="-306646040#2" begin="27" end="27" number="1"/>
<flow id="car29" type="carType1" from="573205061" to="548768488#0" begin="27" end="27" number="1"/>
<flow id="car30" type="carType1" from="231619654#4" to="231156172" begin="27" end="27" number="1"/>
<flow id="car31" type="carType0" from="-112539560#1" to="229685121#0" begin="28" end="28" number="1"/>
<flow id="car32" type="carType2" from="292344952#0" to="-61314983#2" begin="28" end="28" number="1"/>
<flow id="car33" type="carType0" from="299232392#1" to="281465553#1" begin="30" end="30" number="1"/>
<flow id="car34" type="carType2" from="54442526#1" to="324743583#2" begin="31" end="31" number="1"/>
<flow id="car35" type="carType2" from="543787573#1" to="313148095" begin="31" end="31" number="1"/>
<flow id="car36" type="carType2" from="229595754#1" to="-544119518#2" begin="31" end="31" number="1"/>
<flow id="car37" type="carType1" from="627033996" to="362634959" begin="31" end="31" number="1"/>
<flow id="car38" type="carType0" from="-327301962#2" to="-544119518#8" begin="31" end="31" number="1"/>
<flow id="car39" type="carType1" from="-229331806#1" to="597472245" begin="31" end="31" number="1"/>
<flow id="car40" type="carType2" from="-230554803#1" to="-229907799#0" begin="32" end="32" number="1"/>
<flow id="car41" type="carType2" from="-586226661" to="30581035#3" begin="35" end="35" number="1"/>
<flow id="car42" type="carType0" from="-627033997" to="287198756#2" begin="36" end="36" number="1"/>
<flow id="car43" type="carType0" from="-229331809#3" to="314253616" begin="37" end="37" number="1"/>
<flow id="car44" type="carType0" from="-108958409#0" to="112747262#3" begin="38" end="38" number="1"/>
<flow id="car45" type="carType1" from="-230571974#2" to="-548728251" begin="38" end="38" number="1"/>
<flow id="car46" type="carType2" from="614130449#0" to="319826074" begin="39" end="39" number="1"/>
<flow id="car47" type="carType2" from="-544128889#2" to="229905140#0" begin="40" end="40" number="1"/>
<flow id="car48" type="carType0" from="543940443" to="229756768#1" begin="41" end="41" number="1"/>
<flow id="car49" type="carType2" from="-331593330#1" to="-212501029#0" begin="42" end="42" number="1"/>
<flow id="car50" type="carType1" from="-99593592" to="290402365#0" begin="44" end="44" number="1"/>
<flow id="car51" type="carType2" from="594300938#1" to="231155571#2" begin="44" end="44" number="1"/>
<flow id="car52" type="carType1" from="62645607" to="544115924#0" begin="45" end="45" number="1"/>
<flow id="car53" type="carType1" from="312840492" to="473167754" begin="45" end="45" number="1"/>
<flow id="car54" type="carType2" from="-183977852#2" to="112539580#2" begin="47" end="47" number="1"/>
<flow id="car55" type="carType1" from="-229325382#0" to="231153762#1" begin="48" end="48" number="1"/>
<flow id="car56" type="carType0" from="51181784#2" to="560340691" begin="48" end="48" number="1"/>
<flow id="car57" type="carType1" from="295074587#3" to="323460786#5" begin="48" end="48" number="1"/>
<flow id="car58" type="carType2" from="-30572430#1" to="54442503#3" begin="50" end="50" number="1"/>
<flow id="car59" type="carType1" from="231154093" to="-231620461#2" begin="52" end="52" number="1"/>
<flow id="car60" type="carType0" from="229957970" to="-230143071#4" begin="53" end="53" number="1"/>
<flow id="car61" type="carType1" from="230687470#1" to="-276099155#0" begin="53" end="53" number="1"/>
<flow id="car62" type="carType2" from="293771605#1" to="-342558862#0" begin="54" end="54" number="1"/>
<flow id="car63" type="carType2" from="608102066#6" to="112539602#0" begin="54" end="54" number="1"/>
<flow id="car64" type="carType2" from="112539464#5" to="646570494#1" begin="55" end="55" number="1"/>
<flow id="car65" type="carType2" from="-288243878#2" to="-169630679" begin="55" end="55" number="1"/>
<flow id="car66" type="carType2" from="230690694" to="166492631#4" begin="57" end="57" number="1"/>
<flow id="car67" type="carType2" from="-510718793#4" to="230689847#3" begin="57" end="57" number="1"/>
<flow id="car68" type="carType2" from="112539468#1" to="480210547#1" begin="59" end="59" number="1"/>
<flow id="car69" type="carType0" from="314993225" to="-212501016#0" begin="61" end="61" number="1"/>
<flow id="car70" type="carType1" from="-201603990" to="201604001" begin="62" end="62" number="1"/>
<flow id="car71" type="carType2" from="229319020#0" to="-94194636" begin="62" end="62" number="1"/>
<flow id="car72" type="carType0" from="-183971316#1" to="-331593329#0" begin="63" end="63" number="1"/>
<flow id="car73" type="carType1" from="112539537#4" to="212501006#0" begin="63" end="63" number="1"/>
<flow id="car74" type="carType1" from="169630679" to="229685125#19" begin="64" end="64" number="1"/>
<flow id="car75" type="carType0" from="-108958397#2" to="323667082#5" begin="65" end="65" number="1"/>
<flow id="car76" type="carType0" from="544117897#1" to="290898159" begin="65" end="65" number="1"/>
<flow id="car77" type="carType2" from="231153428" to="295398095#2" begin="67" end="67" number="1"/>
<flow id="car78" type="carType1" from="310580826#0" to="-69807612#1" begin="69" end="69" number="1"/>
<flow id="car79" type="carType2" from="-611110304" to="229327870" begin="69" end="69" number="1"/>
<flow id="car80" type="carType2" from="314244946" to="229786171" begin="69" end="69" number="1"/>
<flow id="car81" type="carType0" from="-314245704" to="-229742595#4" begin="69" end="69" number="1"/>
<flow id="car82" type="carType2" from="573205053" to="-586226679" begin="70" end="70" number="1"/>
<flow id="car83" type="carType1" from="292344953#1" to="-96559161#0" begin="72" end="72" number="1"/>
<flow id="car84" type="carType2" from="39499157#8" to="-229450754#6" begin="72" end="72" number="1"/>
<flow id="car85" type="carType2" from="212501025#1" to="290053975#0" begin="72" end="72" number="1"/>
<flow id="car86" type="carType0" from="230143071#4" to="594300955" begin="72" end="72" number="1"/>
<flow id="car87" type="carType1" from="323081029" to="290053972" begin="73" end="73" number="1"/>
<flow id="car88" type="carType1" from="230571975#2" to="551298485#2" begin="74" end="74" number="1"/>
<flow id="car89" type="carType1" from="-548768495#2" to="-112539421#1" begin="75" end="75" number="1"/>
<flow id="car90" type="carType0" from="169630717#1" to="293858472#3" begin="78" end="78" number="1"/>
<flow id="car91" type="carType0" from="323667081#2" to="295396144#1" begin="78" end="78" number="1"/>
<flow id="car92" type="carType1" from="306702181" to="-229709925#0" begin="81" end="81" number="1"/>
<flow id="car93" type="carType0" from="293777632" to="669603494" begin="82" end="82" number="1"/>
<flow id="car94" type="carType1" from="54442497#4" to="310646392" begin="82" end="82" number="1"/>
<flow id="car95" type="carType0" from="112747263#25" to="290053970" begin="83" end="83" number="1"/>
<flow id="car96" type="carType1" from="-338652812#1" to="10639586#1" begin="83" end="83" number="1"/>
<flow id="car97" type="carType1" from="-573205058#0" to="57840085#3" begin="83" end="83" number="1"/>
<flow id="car98" type="carType1" from="-231620444#0" to="-166492631#6" begin="83" end="83" number="1"/>
<flow id="car99" type="carType2" from="-286506003" to="295396144#0" begin="83" end="83" number="1"/>
<flow id="car100" type="carType2" from="290053980#1" to="112747273#0" begin="84" end="84" number="1"/>
<flow id="car101" type="carType1" from="-259264462" to="-96559159#0" begin="84" end="84" number="1"/>
<flow id="car102" type="carType1" from="323667060" to="-229471251#6" begin="85" end="85" number="1"/>
<flow id="car103" type="carType1" from="-288243862#3" to="229892018#1" begin="87" end="87" number="1"/>
<flow id="car104" type="carType2" from="-548747916" to="112539508#0" begin="88" end="88" number="1"/>
<flow id="car105" type="carType1" from="310580814" to="314150377#1" begin="89" end="89" number="1"/>
<flow id="car106" type="carType0" from="231153763#2" to="347940425" begin="89" end="89" number="1"/>
<flow id="car107" type="carType2" from="573205057#4" to="94194636" begin="89" end="89" number="1"/>
<flow id="car108" type="carType1" from="325707656#0" to="-54442510#1" begin="90" end="90" number="1"/>
<flow id="car109" type="carType2" from="-307240391#1" to="312263049#3" begin="91" end="91" number="1"/>
<flow id="car110" type="carType2" from="112539409#1" to="313148094#2" begin="97" end="97" number="1"/>
<flow id="car111" type="carType1" from="-112539491#1" to="608102066#4" begin="97" end="97" number="1"/>
<flow id="car112" type="carType2" from="54442510#0" to="-328475659#0" begin="99" end="99" number="1"/>
<flow id="car113" type="carType0" from="288243851#0" to="-230483146#0" begin="99" end="99" number="1"/>
<flow id="car114" type="carType1" from="301385481#0" to="-229329396#0" begin="101" end="101" number="1"/>
<flow id="car115" type="carType0" from="-30502984#0" to="230689821#2" begin="102" end="102" number="1"/>
<flow id="car116" type="carType0" from="229700330#2" to="548768488#2" begin="104" end="104" number="1"/>
<flow id="car117" type="carType2" from="573205060#1" to="-368826939#1" begin="105" end="105" number="1"/>
<flow id="car118" type="carType2" from="230258110#0" to="-55132515#2" begin="107" end="107" number="1"/>
<flow id="car119" type="carType1" from="543787582#1" to="-328465997#2" begin="110" end="110" number="1"/>
<flow id="car120" type="carType0" from="-527909723" to="-399707426" begin="111" end="111" number="1"/>
<flow id="car121" type="carType0" from="461418620" to="230134486" begin="113" end="113" number="1"/>
<flow id="car122" type="carType1" from="-287201200" to="305425225" begin="113" end="113" number="1"/>
<flow id="car123" type="carType0" from="230145854#3" to="229569413#1" begin="114" end="114" number="1"/>
<flow id="car124" type="carType0" from="38521839" to="-299911601#2" begin="114" end="114" number="1"/>
<flow id="car125" type="carType2" from="368357730" to="229751024#0" begin="114" end="114" number="1"/>
<flow id="car126" type="carType1" from="288530093#0" to="-573205046#0" begin="116" end="116" number="1"/>
<flow id="car127" type="carType0" from="229588724" to="313212413#3" begin="117" end="117" number="1"/>
<flow id="car128" type="carType2" from="229467577#3" to="563142470#1" begin="117" end="117" number="1"/>
<flow id="car129" type="carType2" from="480210544#1" to="-229709926#3" begin="120" end="120" number="1"/>
<flow id="car130" type="carType0" from="544113741#1" to="-221067512#8" begin="120" end="120" number="1"/>
<flow id="car131" type="carType1" from="293777642#0" to="-614130409#2" begin="120" end="120" number="1"/>
<flow id="car132" type="carType1" from="230584115#1" to="-290414302#1" begin="121" end="121" number="1"/>
<flow id="car133" type="carType2" from="349912720" to="303495616#0" begin="123" end="123" number="1"/>
<flow id="car134" type="carType2" from="667561793#2" to="230560797#0" begin="123" end="123" number="1"/>
<flow id="car135" type="carType2" from="-573205048#1" to="112539563#1" begin="123" end="123" number="1"/>
<flow id="car136" type="carType0" from="-169630708" to="221067495" begin="125" end="125" number="1"/>
<flow id="car137" type="carType1" from="30581427#3" to="544176800" begin="125" end="125" number="1"/>
<flow id="car138" type="carType1" from="166492625" to="-61314983#1" begin="126" end="126" number="1"/>
<flow id="car139" type="carType1" from="599384475#0" to="-287198754" begin="126" end="126" number="1"/>
<flow id="car140" type="carType2" from="231156590" to="101049750" begin="126" end="126" number="1"/>
<flow id="car141" type="carType0" from="231153423#2" to="-94161516#0" begin="127" end="127" number="1"/>
<flow id="car142" type="carType0" from="353431386#2" to="-367421824#1" begin="128" end="128" number="1"/>
<flow id="car143" type="carType0" from="548768491#1" to="30502625#0" begin="128" end="128" number="1"/>
<flow id="car144" type="carType0" from="229469315#0" to="-54442507#3" begin="129" end="129" number="1"/>
<flow id="car145" type="carType0" from="-208907178#0" to="-230687483" begin="129" end="129" number="1"/>
<flow id="car146" type="carType2" from="287198771#2" to="112539602#3" begin="131" end="131" number="1"/>
<flow id="car147" type="carType1" from="-229586610#2" to="-94161516#0" begin="136" end="136" number="1"/>
<flow id="car148" type="carType2" from="312840490" to="320407302#1" begin="137" end="137" number="1"/>
<flow id="car149" type="carType1" from="112539428" to="-108958418#0" begin="139" end="139" number="1"/>
<flow id="car150" type="carType1" from="-327301962#1" to="-229587174#0" begin="141" end="141" number="1"/>
<flow id="car151" type="carType1" from="313155561#0" to="-183977852#0" begin="141" end="141" number="1"/>
<flow id="car152" type="carType0" from="287200627#1" to="262610896" begin="144" end="144" number="1"/>
<flow id="car153" type="carType1" from="276110296#0" to="319945849#4" begin="145" end="145" number="1"/>
<flow id="car154" type="carType0" from="-295074590#1" to="314995976#0" begin="145" end="145" number="1"/>
<flow id="car155" type="carType1" from="295074588" to="314245708#2" begin="146" end="146" number="1"/>
<flow id="car156" type="carType2" from="-99583966#2" to="290053968#4" begin="146" end="146" number="1"/>
<flow id="car157" type="carType1" from="-339395212" to="544176802" begin="147" end="147" number="1"/>
<flow id="car158" type="carType2" from="-201604004" to="-599409691#1" begin="148" end="148" number="1"/>
<flow id="car159" type="carType1" from="-61316846#0" to="-295729042#1" begin="152" end="152" number="1"/>
<flow id="car160" type="carType2" from="-368826939#1" to="325037951#1" begin="152" end="152" number="1"/>
<flow id="car161" type="carType1" from="627398405#1" to="314155097" begin="152" end="152" number="1"/>
<flow id="car162" type="carType2" from="548768486#1" to="-229770820#1" begin="153" end="153" number="1"/>
<flow id="car163" type="carType2" from="321250423#3" to="-112539585#0" begin="153" end="153" number="1"/>
<flow id="car164" type="carType0" from="-618798450" to="552106666" begin="154" end="154" number="1"/>
<flow id="car165" type="carType0" from="-230927078" to="-85547400#1" begin="154" end="154" number="1"/>
<flow id="car166" type="carType0" from="-30502757" to="316859967#1" begin="154" end="154" number="1"/>
<flow id="car167" type="carType2" from="229785171#0" to="-451321691" begin="155" end="155" number="1"/>
<flow id="car168" type="carType1" from="551298510" to="627268185#1" begin="156" end="156" number="1"/>
<flow id="car169" type="carType2" from="-334635093#0" to="296752242#7" begin="160" end="160" number="1"/>
<flow id="car170" type="carType1" from="281465553#1" to="54442494#2" begin="160" end="160" number="1"/>
<flow id="car171" type="carType1" from="608119302#0" to="231153424#0" begin="161" end="161" number="1"/>
<flow id="car172" type="carType0" from="-230501259" to="30572450#7" begin="161" end="161" number="1"/>
<flow id="car173" type="carType2" from="229853596#1" to="166492633#2" begin="162" end="162" number="1"/>
<flow id="car174" type="carType0" from="-35135485#1" to="219056534#0" begin="162" end="162" number="1"/>
<flow id="car175" type="carType1" from="-69807630" to="61316859#1" begin="163" end="163" number="1"/>
<flow id="car176" type="carType2" from="-229327868#1" to="320407287#1" begin="163" end="163" number="1"/>
<flow id="car177" type="carType1" from="229714367#0" to="-229319020#7" begin="166" end="166" number="1"/>
<flow id="car178" type="carType2" from="290056911" to="-169677532#2" begin="167" end="167" number="1"/>
<flow id="car179" type="carType1" from="-323505043#5" to="-367421824#0" begin="168" end="168" number="1"/>
<flow id="car180" type="carType1" from="229319020#5" to="229685125#20" begin="173" end="173" number="1"/>
<flow id="car181" type="carType1" from="312493138" to="221067506#11" begin="173" end="173" number="1"/>
<flow id="car182" type="carType0" from="321659961" to="262610894#4" begin="175" end="175" number="1"/>
<flow id="car183" type="carType0" from="281465552#3" to="-327301949#7" begin="175" end="175" number="1"/>
<flow id="car184" type="carType0" from="231155948" to="295729041#1" begin="176" end="176" number="1"/>
<flow id="car185" type="carType1" from="-342558862#1" to="627377414" begin="177" end="177" number="1"/>
<flow id="car186" type="carType0" from="-51181784#2" to="229769408" begin="178" end="178" number="1"/>
<flow id="car187" type="carType1" from="-349914997#1" to="-61314753#2" begin="178" end="178" number="1"/>
<flow id="car188" type="carType2" from="-573205046#3" to="328475648#1" begin="181" end="181" number="1"/>
<flow id="car189" type="carType0" from="323460783#5" to="551326649#1" begin="186" end="186" number="1"/>
<flow id="car190" type="carType2" from="231619071#1" to="-112539517#1" begin="188" end="188" number="1"/>
<flow id="car191" type="carType2" from="543955967#0" to="597476538" begin="190" end="190" number="1"/>
<flow id="car192" type="carType0" from="-230143070" to="-331593330#0" begin="190" end="190" number="1"/>
<flow id="car193" type="carType0" from="627377414" to="-225158339#7" begin="191" end="191" number="1"/>
<flow id="car194" type="carType2" from="625272428" to="229471212#3" begin="192" end="192" number="1"/>
<flow id="car195" type="carType2" from="290063643" to="290063646#0" begin="195" end="195" number="1"/>
<flow id="car196" type="carType2" from="335212262#1" to="-229582727#2" begin="197" end="197" number="1"/>
<flow id="car197" type="carType1" from="-93097614#0" to="290056921#0" begin="197" end="197" number="1"/>
<flow id="car198" type="carType2" from="288243871#1" to="-296769452" begin="197" end="197" number="1"/>
<flow id="car199" type="carType1" from="231619075" to="321185170#0" begin="198" end="198" number="1"/>
</routes>
