<?xml version="1.0" encoding="UTF-8"?>
<!-- generated on 2019-03-10 17:25:37.196956 by $Id$ via randomTrips.py
  options: 
-->
<routes xmlns:xsi="http://www.w3.org/2001/XMLSchema-instance" xsi:noNamespaceSchemaLocation="http://sumo.dlr.de/xsd/routes_file.xsd">
    <vType id="veh_passenger" vClass="passenger">
    </vType>
    <trip id="veh0" depart="0.00" departLane="best" from="290898163#1" to="-112539439#3" type="veh_passenger"/>
    <trip id="veh1" depart="0.66" departLane="best" departSpeed="max" from="-422970300" to="-367253395#3" type="veh_passenger"/>
    <trip id="veh2" depart="1.32" departLane="best" from="35978945#4" to="314253615" type="veh_passenger"/>
    <trip id="veh3" depart="1.98" departLane="best" from="589937899#1" to="-229685125#11" type="veh_passenger"/>
    <trip id="veh4" depart="2.64" departLane="best" from="-627039432#2" to="-112539466#0" type="veh_passenger"/>
    <trip id="veh5" depart="3.29" departLane="best" departSpeed="max" from="-312840487" to="229569413#1" type="veh_passenger"/>
    <trip id="veh6" depart="3.95" departLane="best" from="-112539447#2" to="-323482038#1" type="veh_passenger"/>
    <trip id="veh7" depart="4.61" departLane="best" from="299911036#3" to="230257838" type="veh_passenger"/>
    <trip id="veh8" depart="5.27" departLane="best" departSpeed="max" from="-312840492" to="288244749" type="veh_passenger"/>
    <trip id="veh9" depart="5.93" departLane="best" from="544117898#1" to="-108958407#0" type="veh_passenger"/>
    <trip id="veh10" depart="6.59" departLane="best" from="544113746#1" to="331361368" type="veh_passenger"/>
    <trip id="veh12" depart="7.91" departLane="best" from="627377410" to="-609809122#10" type="veh_passenger"/>
    <trip id="veh13" depart="8.56" departLane="best" from="-229685125#12" to="-229767270#0" type="veh_passenger"/>
    <trip id="veh15" depart="9.88" departLane="best" from="544115924#0" to="39499156#0" type="veh_passenger"/>
    <trip id="veh17" depart="11.20" departLane="best" from="-594300971#2" to="230565993#3" type="veh_passenger"/>
    <trip id="veh18" depart="11.86" departLane="best" departSpeed="max" from="54442494#0" to="304002652#1" type="veh_passenger"/>
    <trip id="veh19" depart="12.52" departLane="best" from="549369214#0" to="28708227" type="veh_passenger"/>
    <trip id="veh20" depart="13.18" departLane="best" from="318290860#0" to="-112539580#4" type="veh_passenger"/>
    <trip id="veh21" depart="13.83" departLane="best" from="-323482055#2" to="-54442512#1" type="veh_passenger"/>
    <trip id="veh23" depart="15.15" departLane="best" from="-229773142" to="-54442487#3" type="veh_passenger"/>
    <trip id="veh24" depart="15.81" departLane="best" from="290894760#1" to="-627039431" type="veh_passenger"/>
    <trip id="veh25" depart="16.47" departLane="best" from="-59398983" to="-330426700#3" type="veh_passenger"/>
    <trip id="veh26" depart="17.13" departLane="best" from="-39499153" to="614130412" type="veh_passenger"/>
    <trip id="veh27" depart="17.79" departLane="best" from="299252843#0" to="295396144#1" type="veh_passenger"/>
    <trip id="veh28" depart="18.45" departLane="best" from="-299911597#2" to="39499153" type="veh_passenger"/>
    <trip id="veh29" depart="19.10" departLane="best" from="-295282381#2" to="-69807635#0" type="veh_passenger"/>
    <trip id="veh30" depart="19.76" departLane="best" from="99366826#4" to="30581023" type="veh_passenger"/>
    <trip id="veh31" depart="20.42" departLane="best" from="229582730#1" to="327301940#1" type="veh_passenger"/>
    <trip id="veh32" depart="21.08" departLane="best" from="54442522#2" to="543990201" type="veh_passenger"/>
    <trip id="veh33" depart="21.74" departLane="best" from="-323505043#3" to="-112539491#1" type="veh_passenger"/>
    <trip id="veh34" depart="22.40" departLane="best" from="-544133363" to="-544119517#5" type="veh_passenger"/>
    <trip id="veh35" depart="23.06" departLane="best" departSpeed="max" from="-312840476" to="618039930" type="veh_passenger"/>
    <trip id="veh36" depart="23.72" departLane="best" from="552106665" to="-589937898#1" type="veh_passenger"/>
    <trip id="veh37" depart="24.37" departLane="best" from="304002653#2" to="-99583966#2" type="veh_passenger"/>
    <trip id="veh38" depart="25.03" departLane="best" from="609809122#5" to="112539563#1" type="veh_passenger"/>
    <trip id="veh39" depart="25.69" departLane="best" from="-390967511#3" to="-536309974#2" type="veh_passenger"/>
    <trip id="veh40" depart="26.35" departLane="best" from="229685124#0" to="-544113738#2" type="veh_passenger"/>
    <trip id="veh41" depart="27.01" departLane="best" from="229891862#0" to="594300966#2" type="veh_passenger"/>
    <trip id="veh42" depart="27.67" departLane="best" from="-61314979#3" to="-35135486#10" type="veh_passenger"/>
    <trip id="veh43" depart="28.33" departLane="best" from="99583990" to="229582733" type="veh_passenger"/>
    <trip id="veh44" depart="28.99" departLane="best" from="-229681309#1" to="-112539601#0" type="veh_passenger"/>
    <trip id="veh45" depart="29.64" departLane="best" departSpeed="max" from="-230257838" to="30572422#2" type="veh_passenger"/>
    <trip id="veh46" depart="30.30" departLane="best" from="543992713" to="112539416#9" type="veh_passenger"/>
    <trip id="veh47" depart="30.96" departLane="best" from="-186021783#1" to="-90537906" type="veh_passenger"/>
    <trip id="veh48" depart="31.62" departLane="best" from="99583983#0" to="229773148" type="veh_passenger"/>
    <trip id="veh49" depart="32.28" departLane="best" from="675606356" to="551326644#2" type="veh_passenger"/>
    <trip id="veh50" depart="32.94" departLane="best" from="-108958432#1" to="367421824#1" type="veh_passenger"/>
    <trip id="veh51" depart="33.60" departLane="best" from="30581032#0" to="230037484#1" type="veh_passenger"/>
    <trip id="veh52" depart="34.26" departLane="best" from="-39499151#4" to="30581026#1" type="veh_passenger"/>
    <trip id="veh53" depart="34.92" departLane="best" from="-230554802" to="112539466#2" type="veh_passenger"/>
    <trip id="veh54" depart="35.57" departLane="best" departSpeed="max" from="-99593598" to="627039428" type="veh_passenger"/>
    <trip id="veh55" depart="36.23" departLane="best" from="552106650" to="-544113738#5" type="veh_passenger"/>
    <trip id="veh56" depart="36.89" departLane="best" from="112539537#4" to="-30581032#1" type="veh_passenger"/>
    <trip id="veh57" depart="37.55" departLane="best" from="608125037" to="554677071" type="veh_passenger"/>
    <trip id="veh58" depart="38.21" departLane="best" from="-543992715" to="30572672#0" type="veh_passenger"/>
    <trip id="veh59" depart="38.87" departLane="best" from="231619071#0" to="-299911036#6" type="veh_passenger"/>
    <trip id="veh60" depart="39.53" departLane="best" from="480210541" to="230145817#0" type="veh_passenger"/>
    <trip id="veh61" depart="40.19" departLane="best" from="543946831" to="229791484" type="veh_passenger"/>
    <trip id="veh62" depart="40.84" departLane="best" from="-101049743#1" to="-597476534" type="veh_passenger"/>
    <trip id="veh63" depart="41.50" departLane="best" from="-112539416#11" to="61316852" type="veh_passenger"/>
    <trip id="veh64" depart="42.16" departLane="best" from="552831498#1" to="54442526#0" type="veh_passenger"/>
    <trip id="veh65" depart="42.82" departLane="best" from="-544117898#1" to="-196312638#0" type="veh_passenger"/>
    <trip id="veh66" depart="43.48" departLane="best" from="552106669" to="625272434" type="veh_passenger"/>
    <trip id="veh67" depart="44.14" departLane="best" from="-229336676#1" to="212501032#1" type="veh_passenger"/>
    <trip id="veh68" depart="44.80" departLane="best" departSpeed="max" from="-212501006#1" to="543940440#0" type="veh_passenger"/>
    <trip id="veh69" depart="45.46" departLane="best" from="480210548" to="-287286999#1" type="veh_passenger"/>
    <trip id="veh70" depart="46.11" departLane="best" departSpeed="max" from="112539416#0" to="230560797#1" type="veh_passenger"/>
    <trip id="veh71" depart="46.77" departLane="best" from="-391650149#0" to="560212665" type="veh_passenger"/>
    <trip id="veh72" depart="47.43" departLane="best" from="-627268185#2" to="-331686561#0" type="veh_passenger"/>
    <trip id="veh73" depart="48.09" departLane="best" departSpeed="max" from="228145510#0" to="39499156#1" type="veh_passenger"/>
    <trip id="veh74" depart="48.75" departLane="best" from="-30581432#2" to="-57840086#9" type="veh_passenger"/>
    <trip id="veh75" depart="49.41" departLane="best" from="99583977" to="30581047#1" type="veh_passenger"/>
    <trip id="veh76" depart="50.07" departLane="best" from="-96559154#0" to="229685125#20" type="veh_passenger"/>
    <trip id="veh77" depart="50.73" departLane="best" from="-230584135#1" to="-380428218" type="veh_passenger"/>
    <trip id="veh78" depart="51.38" departLane="best" departSpeed="max" from="-54442529" to="288244748" type="veh_passenger"/>
    <trip id="veh79" depart="52.04" departLane="best" from="-323603662#0" to="-35135486#6" type="veh_passenger"/>
    <trip id="veh80" depart="52.70" departLane="best" from="-212501014#4" to="30572450#13" type="veh_passenger"/>
    <trip id="veh81" depart="53.36" departLane="best" from="-323505043#2" to="599405913#3" type="veh_passenger"/>
    <trip id="veh82" depart="54.02" departLane="best" from="548768508" to="-214263373" type="veh_passenger"/>
    <trip id="veh83" depart="54.68" departLane="best" from="-329531120" to="312840486" type="veh_passenger"/>
    <trip id="veh84" depart="55.34" departLane="best" from="-312840481" to="-288243878#4" type="veh_passenger"/>
    <trip id="veh85" depart="56.00" departLane="best" from="614030864#3" to="276110289" type="veh_passenger"/>
    <trip id="veh86" depart="56.65" departLane="best" from="112539409#10" to="543994837#0" type="veh_passenger"/>
    <trip id="veh88" depart="57.97" departLane="best" from="-229685125#6" to="112539456#4" type="veh_passenger"/>
    <trip id="veh89" depart="58.63" departLane="best" from="-627377407#1" to="112747273#0" type="veh_passenger"/>
    <trip id="veh90" depart="59.29" departLane="best" from="35135486#0" to="312840493" type="veh_passenger"/>
    <trip id="veh91" depart="59.95" departLane="best" from="96559159#9" to="-229780492" type="veh_passenger"/>
    <trip id="veh92" depart="60.61" departLane="best" from="-61314985#1" to="-611119751#2" type="veh_passenger"/>
    <trip id="veh93" depart="61.27" departLane="best" from="549369214#0" to="-538075083" type="veh_passenger"/>
    <trip id="veh94" depart="61.93" departLane="best" from="-30572590#3" to="112539535#2" type="veh_passenger"/>
    <trip id="veh95" depart="62.58" departLane="best" from="-627039432#0" to="-54442491#0" type="veh_passenger"/>
    <trip id="veh96" depart="63.24" departLane="best" from="-349912721#1" to="61314985#3" type="veh_passenger"/>
    <trip id="veh97" depart="63.90" departLane="best" from="-99366826#4" to="551326646#1" type="veh_passenger"/>
    <trip id="veh98" depart="64.56" departLane="best" from="229472269" to="-166614020#0" type="veh_passenger"/>
    <trip id="veh100" depart="65.88" departLane="best" from="673201510#2" to="61314990#3" type="veh_passenger"/>
    <trip id="veh101" depart="66.54" departLane="best" from="548747915" to="-30572307#12" type="veh_passenger"/>
    <trip id="veh102" depart="67.20" departLane="best" from="112539460#2" to="-336123016" type="veh_passenger"/>
    <trip id="veh103" depart="67.85" departLane="best" from="-61314982#2" to="-204595240" type="veh_passenger"/>
    <trip id="veh104" depart="68.51" departLane="best" from="-594300971#4" to="99366820" type="veh_passenger"/>
    <trip id="veh105" depart="69.17" departLane="best" from="-391650149#0" to="543994836#1" type="veh_passenger"/>
    <trip id="veh106" depart="69.83" departLane="best" departSpeed="max" from="101049743#0" to="112539421#3" type="veh_passenger"/>
    <trip id="veh107" depart="70.49" departLane="best" from="627377411" to="99583989#4" type="veh_passenger"/>
    <trip id="veh108" depart="71.15" departLane="best" from="229582728#0" to="361945910#1" type="veh_passenger"/>
    <trip id="veh109" depart="71.81" departLane="best" departSpeed="max" from="-290414302#1" to="-548747916" type="veh_passenger"/>
    <trip id="veh110" depart="72.47" departLane="best" from="673201510#1" to="287200627#0" type="veh_passenger"/>
    <trip id="veh111" depart="73.12" departLane="best" from="229327870" to="480210542" type="veh_passenger"/>
    <trip id="veh112" depart="73.78" departLane="best" departSpeed="max" from="-112539602#4" to="288243840#0" type="veh_passenger"/>
    <trip id="veh113" depart="74.44" departLane="best" from="112539543#3" to="549369215#1" type="veh_passenger"/>
    <trip id="veh114" depart="75.10" departLane="best" departSpeed="max" from="-290894760#6" to="627398406" type="veh_passenger"/>
    <trip id="veh116" depart="76.42" departLane="best" from="230347024" to="314245708#1" type="veh_passenger"/>
    <trip id="veh117" depart="77.08" departLane="best" departSpeed="max" from="-328337769" to="-276110296#1" type="veh_passenger"/>
    <trip id="veh118" depart="77.74" departLane="best" from="589922569#1" to="-536309974#0" type="veh_passenger"/>
    <trip id="veh119" depart="78.39" departLane="best" from="230256299#0" to="304002656#1" type="veh_passenger"/>
    <trip id="veh120" depart="79.05" departLane="best" from="-625379818#0" to="288243826#0" type="veh_passenger"/>
    <trip id="veh121" depart="79.71" departLane="best" from="207383673" to="614030864#2" type="veh_passenger"/>
    <trip id="veh122" depart="80.37" departLane="best" from="-306646041#1" to="353431386#3" type="veh_passenger"/>
    <trip id="veh123" depart="81.03" departLane="best" from="-329894431" to="-99583973#1" type="veh_passenger"/>
    <trip id="veh124" depart="81.69" departLane="best" from="30572450#19" to="-548774423#0" type="veh_passenger"/>
    <trip id="veh125" depart="82.35" departLane="best" from="-544136950#0" to="482746565" type="veh_passenger"/>
    <trip id="veh126" depart="83.01" departLane="best" from="-212501019" to="112539562" type="veh_passenger"/>
    <trip id="veh127" depart="83.66" departLane="best" from="99584017#0" to="99583998#1" type="veh_passenger"/>
    <trip id="veh128" depart="84.32" departLane="best" from="-212501025#0" to="-335212260" type="veh_passenger"/>
    <trip id="veh129" depart="84.98" departLane="best" from="-391650149#0" to="613421057" type="veh_passenger"/>
    <trip id="veh130" depart="85.64" departLane="best" from="559389089#2" to="57840086#1" type="veh_passenger"/>
    <trip id="veh131" depart="86.30" departLane="best" departSpeed="max" from="-59398982" to="-304002655" type="veh_passenger"/>
    <trip id="veh132" depart="86.96" departLane="best" from="54442503#0" to="337440855#0" type="veh_passenger"/>
    <trip id="veh133" depart="87.62" departLane="best" from="24831878#2" to="99366861#1" type="veh_passenger"/>
    <trip id="veh134" depart="88.28" departLane="best" from="299911601#3" to="-108958418#0" type="veh_passenger"/>
    <trip id="veh135" depart="88.93" departLane="best" from="544128887#3" to="-548768495#3" type="veh_passenger"/>
    <trip id="veh136" depart="89.59" departLane="best" from="30572250#4" to="614130439#1" type="veh_passenger"/>
    <trip id="veh137" depart="90.25" departLane="best" from="-287198756#2" to="-231360841" type="veh_passenger"/>
    <trip id="veh138" depart="90.91" departLane="best" departSpeed="max" from="-230087204" to="230584107#1" type="veh_passenger"/>
    <trip id="veh139" depart="91.57" departLane="best" departSpeed="max" from="-399707435" to="290898163#2" type="veh_passenger"/>
    <trip id="veh140" depart="92.23" departLane="best" from="330426700#2" to="-326779158" type="veh_passenger"/>
    <trip id="veh141" depart="92.89" departLane="best" from="290056905#0" to="-544113741#2" type="veh_passenger"/>
    <trip id="veh142" depart="93.55" departLane="best" from="112539466#5" to="599405913#2" type="veh_passenger"/>
    <trip id="veh143" depart="94.21" departLane="best" from="548718414#3" to="-229696305#0" type="veh_passenger"/>
    <trip id="veh144" depart="94.86" departLane="best" from="-627377407#1" to="-544176796#1" type="veh_passenger"/>
    <trip id="veh145" depart="95.52" departLane="best" from="-107683790#4" to="543987039#1" type="veh_passenger"/>
    <trip id="veh146" depart="96.18" departLane="best" departSpeed="max" from="290898160#0" to="-543999159#6" type="veh_passenger"/>
    <trip id="veh147" depart="96.84" departLane="best" from="38521839" to="230565993#0" type="veh_passenger"/>
    <trip id="veh148" depart="97.50" departLane="best" from="-646570496#0" to="-108958425#1" type="veh_passenger"/>
    <trip id="veh149" depart="98.16" departLane="best" from="-212501032#0" to="587887915#1" type="veh_passenger"/>
    <trip id="veh150" depart="98.82" departLane="best" from="599405913#2" to="230347024" type="veh_passenger"/>
    <trip id="veh151" depart="99.48" departLane="best" from="54442503#5" to="287286999#1" type="veh_passenger"/>
    <trip id="veh152" depart="100.13" departLane="best" departSpeed="max" from="-288529023" to="-287218202#0" type="veh_passenger"/>
    <trip id="veh153" depart="100.79" departLane="best" from="-544117898#5" to="594300969#1" type="veh_passenger"/>
    <trip id="veh154" depart="101.45" departLane="best" from="543994836#0" to="551326644#0" type="veh_passenger"/>
    <trip id="veh155" depart="102.11" departLane="best" from="594300966#4" to="-330426704#1" type="veh_passenger"/>
    <trip id="veh156" depart="102.77" departLane="best" from="-349912720" to="-229883261" type="veh_passenger"/>
    <trip id="veh157" depart="103.43" departLane="best" from="543955966" to="587887921" type="veh_passenger"/>
    <trip id="veh158" depart="104.09" departLane="best" from="-61314990#4" to="304916748" type="veh_passenger"/>
    <trip id="veh159" depart="104.75" departLane="best" from="-290414302#0" to="61316858" type="veh_passenger"/>
    <trip id="veh160" depart="105.40" departLane="best" from="550833862" to="94161516#2" type="veh_passenger"/>
    <trip id="veh161" depart="106.06" departLane="best" from="544119517#1" to="57840087" type="veh_passenger"/>
    <trip id="veh162" depart="106.72" departLane="best" from="-112539439#1" to="399707439#1" type="veh_passenger"/>
    <trip id="veh163" depart="107.38" departLane="best" from="-54442510#2" to="61316862" type="veh_passenger"/>
    <trip id="veh164" depart="108.04" departLane="best" from="544113738#2" to="551326654" type="veh_passenger"/>
    <trip id="veh165" depart="108.70" departLane="best" from="544119517#1" to="-544119517#10" type="veh_passenger"/>
    <trip id="veh166" depart="109.36" departLane="best" from="551326649#1" to="55132515#1" type="veh_passenger"/>
    <trip id="veh167" depart="110.02" departLane="best" from="-314245702#1" to="54442491#5" type="veh_passenger"/>
    <trip id="veh168" depart="110.67" departLane="best" from="108958397#0" to="-55132515#2" type="veh_passenger"/>
    <trip id="veh169" depart="111.33" departLane="best" from="543994832#3" to="-391650149#0" type="veh_passenger"/>
    <trip id="veh170" depart="111.99" departLane="best" from="-112539435#3" to="-312840483#1" type="veh_passenger"/>
    <trip id="veh171" depart="112.65" departLane="best" from="-54442502#1" to="552106642" type="veh_passenger"/>
    <trip id="veh172" depart="113.31" departLane="best" departSpeed="max" from="667578377" to="-54442491#3" type="veh_passenger"/>
    <trip id="veh173" depart="113.97" departLane="best" departSpeed="max" from="293709817#0" to="101049743#1" type="veh_passenger"/>
    <trip id="veh174" depart="114.63" departLane="best" from="96559154#1" to="230037484#0" type="veh_passenger"/>
    <trip id="veh175" depart="115.29" departLane="best" from="614130436#1" to="-231360841" type="veh_passenger"/>
    <trip id="veh176" depart="115.94" departLane="best" from="675606355#0" to="-30581032#1" type="veh_passenger"/>
    <trip id="veh177" depart="116.60" departLane="best" from="643906728" to="-544117898#3" type="veh_passenger"/>
    <trip id="veh178" depart="117.26" departLane="best" departSpeed="max" from="-230256299#1" to="112539466#1" type="veh_passenger"/>
    <trip id="veh179" depart="117.92" departLane="best" from="35135485#0" to="-589937888#0" type="veh_passenger"/>
    <trip id="veh180" depart="118.58" departLane="best" from="230585264#0" to="229685122#0" type="veh_passenger"/>
    <trip id="veh181" depart="119.24" departLane="best" from="-599409691#1" to="28220042#1" type="veh_passenger"/>
    <trip id="veh183" depart="120.56" departLane="best" from="225158334" to="367253395#1" type="veh_passenger"/>
    <trip id="veh184" depart="121.22" departLane="best" from="38747873#0" to="312840487" type="veh_passenger"/>
    <trip id="veh185" depart="121.87" departLane="best" from="-589937891#1" to="-212501039#2" type="veh_passenger"/>
    <trip id="veh186" depart="122.53" departLane="best" from="30572252#4" to="-600426794#0" type="veh_passenger"/>
    <trip id="veh187" depart="123.19" departLane="best" from="-544128887#1" to="548768503#0" type="veh_passenger"/>
    <trip id="veh188" depart="123.85" departLane="best" from="331361367#0" to="-548774423#2" type="veh_passenger"/>
    <trip id="veh189" depart="124.51" departLane="best" from="-544119517#2" to="108958418#2" type="veh_passenger"/>
    <trip id="veh190" depart="125.17" departLane="best" from="-61314985#0" to="-548747913#0" type="veh_passenger"/>
    <trip id="veh191" depart="125.83" departLane="best" from="-24831921#0" to="112539416#1" type="veh_passenger"/>
    <trip id="veh192" depart="126.49" departLane="best" from="614130444" to="314257861#1" type="veh_passenger"/>
    <trip id="veh193" depart="127.14" departLane="best" from="597476537" to="299911597#2" type="veh_passenger"/>
    <trip id="veh194" depart="127.80" departLane="best" departSpeed="max" from="-543994833" to="230551750" type="veh_passenger"/>
    <trip id="veh195" depart="128.46" departLane="best" from="-101049742#2" to="-54442506#3" type="veh_passenger"/>
    <trip id="veh196" depart="129.12" departLane="best" departSpeed="max" from="-672987863" to="287200628#1" type="veh_passenger"/>
    <trip id="veh197" depart="129.78" departLane="best" from="304002652#0" to="112539602#4" type="veh_passenger"/>
    <trip id="veh198" depart="130.44" departLane="best" from="-98025992#1" to="-336123016" type="veh_passenger"/>
    <trip id="veh199" depart="131.10" departLane="best" from="112539409#12" to="594300975" type="veh_passenger"/>
    <trip id="veh200" depart="131.76" departLane="best" from="543994835" to="-30572430#0" type="veh_passenger"/>
    <trip id="veh201" depart="132.41" departLane="best" from="-229329482" to="229685125#13" type="veh_passenger"/>
    <trip id="veh202" depart="133.07" departLane="best" from="288979528#1" to="-608102066#4" type="veh_passenger"/>
    <trip id="veh203" depart="133.73" departLane="best" from="544133363" to="480210549" type="veh_passenger"/>
    <trip id="veh204" depart="134.39" departLane="best" from="30572450#7" to="-380428218" type="veh_passenger"/>
    <trip id="veh205" depart="135.05" departLane="best" departSpeed="max" from="-30581047#1" to="-112539439#0" type="veh_passenger"/>
    <trip id="veh206" depart="135.71" departLane="best" departSpeed="max" from="-336123010" to="207383675#0" type="veh_passenger"/>
    <trip id="veh208" depart="137.03" departLane="best" from="-614032591#1" to="30572430#2" type="veh_passenger"/>
    <trip id="veh209" depart="137.68" departLane="best" from="-30581033#3" to="330426704#2" type="veh_passenger"/>
    <trip id="veh210" depart="138.34" departLane="best" from="112539509#1" to="-51181767" type="veh_passenger"/>
    <trip id="veh211" depart="139.00" departLane="best" departSpeed="max" from="304002655" to="-108958393#0" type="veh_passenger"/>
    <trip id="veh213" depart="140.32" departLane="best" departSpeed="max" from="-230087204" to="112539435#3" type="veh_passenger"/>
    <trip id="veh214" depart="140.98" departLane="best" from="-30502625#1" to="627377408#0" type="veh_passenger"/>
    <trip id="veh215" depart="141.64" departLane="best" departSpeed="max" from="184601405" to="-112747284#1" type="veh_passenger"/>
    <trip id="veh216" depart="142.30" departLane="best" from="-347940424#0" to="548768504" type="veh_passenger"/>
    <trip id="veh217" depart="142.95" departLane="best" from="101049752#1" to="544119518#0" type="veh_passenger"/>
    <trip id="veh218" depart="143.61" departLane="best" from="30572422#4" to="99366861#1" type="veh_passenger"/>
    <trip id="veh219" depart="144.27" departLane="best" from="589937891#2" to="299911036#1" type="veh_passenger"/>
    <trip id="veh220" depart="144.93" departLane="best" from="330426707#2" to="229472446" type="veh_passenger"/>
    <trip id="veh221" depart="145.59" departLane="best" from="54442496#1" to="230551750" type="veh_passenger"/>
    <trip id="veh222" depart="146.25" departLane="best" from="594300922#2" to="480210531#1" type="veh_passenger"/>
    <trip id="veh223" depart="146.91" departLane="best" departSpeed="max" from="112539416#0" to="-543994834#1" type="veh_passenger"/>
    <trip id="veh225" depart="148.22" departLane="best" from="480210547#1" to="229696306#0" type="veh_passenger"/>
    <trip id="veh226" depart="148.88" departLane="best" from="288243826#1" to="-544157856" type="veh_passenger"/>
    <trip id="veh227" depart="149.54" departLane="best" from="-212501039#1" to="-54442503#3" type="veh_passenger"/>
    <trip id="veh229" depart="150.86" departLane="best" from="229204969#1" to="-290894760#0" type="veh_passenger"/>
    <trip id="veh230" depart="151.52" departLane="best" from="-327301940#4" to="329531120" type="veh_passenger"/>
    <trip id="veh231" depart="152.18" departLane="best" from="323482064#1" to="-212501023#1" type="veh_passenger"/>
    <trip id="veh232" depart="152.84" departLane="best" from="-61316849#1" to="230155585" type="veh_passenger"/>
    <trip id="veh233" depart="153.50" departLane="best" from="-614130436#0" to="-328465997#0" type="veh_passenger"/>
    <trip id="veh234" depart="154.15" departLane="best" from="-627033997" to="599384475#1" type="veh_passenger"/>
    <trip id="veh235" depart="154.81" departLane="best" departSpeed="max" from="229883261" to="330426700#3" type="veh_passenger"/>
    <trip id="veh236" depart="155.47" departLane="best" from="548768499#2" to="543955965#1" type="veh_passenger"/>
    <trip id="veh237" depart="156.13" departLane="best" from="-597472240" to="-108958395" type="veh_passenger"/>
    <trip id="veh238" depart="156.79" departLane="best" from="-55132517" to="494506202#6" type="veh_passenger"/>
    <trip id="veh239" depart="157.45" departLane="best" from="548768495#0" to="627039427#0" type="veh_passenger"/>
    <trip id="veh240" depart="158.11" departLane="best" departSpeed="max" from="-618798453#1" to="480210541" type="veh_passenger"/>
    <trip id="veh241" depart="158.77" departLane="best" departSpeed="max" from="229440732" to="290898161#2" type="veh_passenger"/>
    <trip id="veh242" depart="159.42" departLane="best" departSpeed="max" from="-312840492" to="-35135486#11" type="veh_passenger"/>
    <trip id="veh243" depart="160.08" departLane="best" from="-94161511#2" to="-112539464#2" type="veh_passenger"/>
    <trip id="veh244" depart="160.74" departLane="best" from="-54442523" to="318764330" type="veh_passenger"/>
    <trip id="veh245" depart="161.40" departLane="best" from="-61314987#2" to="-30572252#3" type="veh_passenger"/>
    <trip id="veh246" depart="162.06" departLane="best" from="108958433#1" to="-287218202#1" type="veh_passenger"/>
    <trip id="veh247" depart="162.72" departLane="best" from="287200627#1" to="-112539458#3" type="veh_passenger"/>
    <trip id="veh248" depart="163.38" departLane="best" from="-609809122#6" to="231619071#1" type="veh_passenger"/>
    <trip id="veh249" depart="164.04" departLane="best" from="-112539453#0" to="30581033#0" type="veh_passenger"/>
    <trip id="veh250" depart="164.69" departLane="best" from="-287200628#1" to="112539581#0" type="veh_passenger"/>
    <trip id="veh251" depart="165.35" departLane="best" from="-112539560#0" to="-69807635#0" type="veh_passenger"/>
    <trip id="veh252" depart="166.01" departLane="best" departSpeed="max" from="-312840476" to="-599405913#2" type="veh_passenger"/>
    <trip id="veh253" depart="166.67" departLane="best" from="480210536" to="-69807635#0" type="veh_passenger"/>
    <trip id="veh254" depart="167.33" departLane="best" departSpeed="max" from="437271350" to="54442528" type="veh_passenger"/>
    <trip id="veh255" depart="167.99" departLane="best" from="-35135486#6" to="-229445854#0" type="veh_passenger"/>
    <trip id="veh256" depart="168.65" departLane="best" from="-112539416#10" to="230145817#0" type="veh_passenger"/>
    <trip id="veh257" depart="169.31" departLane="best" from="99593602" to="-61314988#0" type="veh_passenger"/>
    <trip id="veh258" depart="169.96" departLane="best" from="299911036#4" to="543994832#3" type="veh_passenger"/>
    <trip id="veh259" depart="170.62" departLane="best" from="299911597#1" to="51181767" type="veh_passenger"/>
    <trip id="veh260" depart="171.28" departLane="best" from="625379821" to="-323482055#0" type="veh_passenger"/>
    <trip id="veh261" depart="171.94" departLane="best" from="-112539416#7" to="-299911036#5" type="veh_passenger"/>
    <trip id="veh262" depart="172.60" departLane="best" departSpeed="max" from="-231449946#4" to="312840486" type="veh_passenger"/>
    <trip id="veh263" depart="173.26" departLane="best" from="229685125#14" to="-349912722" type="veh_passenger"/>
    <trip id="veh264" depart="173.92" departLane="best" from="312840494" to="543955967#5" type="veh_passenger"/>