<?xml version="1.0" encoding="UTF-8"?>

<!-- generated on 03/10/19 17:25:30 by Eclipse SUMO duarouter Version 1.1.0
<configuration xmlns:xsi="http://www.w3.org/2001/XMLSchema-instance" xsi:noNamespaceSchemaLocation="http://sumo.dlr.de/xsd/duarouterConfiguration.xsd">

    <input>
        <net-file value="C:\Users\doliv\2019-03-10-17-24-52\osm.net.xml"/>
        <route-files value="C:\Users\doliv\2019-03-10-17-24-52\osm.passenger.trips.xml"/>
    </input>

    <output>
        <output-file value="C:\Users\doliv\2019-03-10-17-24-52\osm.passenger.rou.xml"/>
        <alternatives-output value="C:\Users\doliv\2019-03-10-17-24-52\osm.passenger.rou.alt.xml"/>
    </output>

    <time>
        <begin value="0"/>
        <end value="3600.0"/>
    </time>

    <report>
        <no-warnings value="true"/>
        <ignore-errors value="true"/>
        <no-step-log value="true"/>
    </report>

</configuration>
-->

<routes xmlns:xsi="http://www.w3.org/2001/XMLSchema-instance" xsi:noNamespaceSchemaLocation="http://sumo.dlr.de/xsd/routes_file.xsd">
    <vType id="veh_passenger" vClass="passenger"/>
    <vehicle id="veh0" type="veh_passenger" depart="0.00" departLane="best">
        <route edges="290898163#1 290898163#2 287198763#1 290894756#0 290894756#1 290894746#0 290894746#1 290894746#3 96559159#0 96559159#1 96559159#2 96559159#3 96559159#4 96559159#5 96559159#6 96559159#7 96559159#8 96559159#9 544143634 543999159#0 543999159#1 543999159#2 543999159#3 543999159#5 543999159#6 35135431#0 35135431#1 644442317#0 544113735 548747912 548747913#0 548747913#1 550833862 543988934#0 543988934#1 299911601#0 299911601#2 299911601#3 543940440#0 543940440#2 299911600 299911599#1 614130449#0 614130449#1 625104568 99583990 543940442 614130427 620382832 614130436#0 614130436#1 614130430#1 329894413 -276099155#3 -276099155#2 -276099155#0 30572526 368652799 548851964 543957814#0 543955979#2 587887916 643906741 544133364 299911597#1 299911597#2 544133363 544117897#1 51231484 627398404 544119517#1 544119517#2 544119517#4 544119517#5 544119517#6 544119517#7 -112539560#1 -112539560#0 112539521#0 112539468#0 -112539439#4 -112539439#3"/>
    </vehicle>
    <vehicle id="veh1" type="veh_passenger" depart="0.66" departLane="best" departSpeed="max">
        <route edges="-422970300 -55132500#2 -55132500#1 -55132500#0 544113746#2 627398410#0 627398410#1 544113745#1 544113745#2 544113745#3 230155585 -627398412 -299911036#8 -299911036#6 -299911036#5 -299911036#4 -299911036#3 -299911036#2 -299911036#1 -299911036#0 -543992715 -544119517#10 -544119517#9 -544119517#8 -544119517#7 -544119517#6 -544119517#5 -544119517#4 -544119517#2 -544119517#1 -627398404 -51231484 -499105908 -544133363 -299911597#2 -299911597#1 -544133364 643906728 554677071 552106642 552106651 552106649 327301967-AddedOnRampEdge 327301967 -367253395#3"/>
    </vehicle>
    <vehicle id="veh2" type="veh_passenger" depart="1.32" departLane="best">
        <route edges="35978945#4 544115925#1 544115925#2 229472266 -544115924#1 -544115924#0 -627377410 -627377411 -323505043#8 -323505043#7 -323505043#6 -323505043#5 -323505043#4 -323505043#3 -323505043#2 -323505043#1 -323505043#0 112539384#0 112539384#1 112539384#2 112539384#3 -544119517#2 -544119517#1 -627398404 -51231484 -499105908 -544133363 -299911597#2 -299911597#1 -544133364 643906728 554677071 552106642 552106651 552106649 327301967-AddedOnRampEdge 327301967 -367253395#3 -367253395#2 -367253395#1 -367253393#2 -230488484 543955977 -30581040#3 -30581040#2 -30581040#1 -30581040#0 482746565 38747872#0 38747872#1 625272452 625379817#0 -222282188 -306646041#1 -306646041#0 51181790 96559149 -665672895#5 -665672895#4 -665672895#3 -665672895#2 -665672895#1 -665672895#0 -61316842#1 -61316842#0 314253615"/>
    </vehicle>
    <vehicle id="veh3" type="veh_passenger" depart="1.98" departLane="best">
        <route edges="589937899#1 -589937891#0 -158219355 544121190 543955972#0 543955972#1 543955972#2 288979528#1 288979528#2 288979528#3 288979528#4 107683791#0 107683791#2 552831498#0 552831498#1 552831498#3 551326652 551326649#0 551326649#1 552106667 552106658#0 -587887916 -543955979#2 -543957814#0 -548851964 -368652799 -30572526 30572430#0 30572430#1 30572430#2 229685126#0 229685126#1 543955965#2 543957798 30581023 30581026#0 30581026#1 30581026#2 229685125#0 229685125#1 229685125#2 229685125#3 229685125#4 229685125#5 229685125#6 229685125#8 229685125#9 229685125#11 -229685125#11"/>
    </vehicle>
    <vehicle id="veh4" type="veh_passenger" depart="2.64" departLane="best">
        <route edges="-627039432#2 627039432#2 627039432#3 627039432#4 599405923#1 599405923#2 544161331#0 544161331#2 544161333#0 544161333#1 96559157#0 96559157#1 57840085#0 57840085#1 57840085#2 57840085#3 57840085#4 665672895#0 665672895#1 112539466#0 -112539466#0"/>
    </vehicle>
    <vehicle id="veh5" type="veh_passenger" depart="3.29" departLane="best" departSpeed="max">
        <route edges="-312840487 -112539409#4 -112539409#3 -112539409#1 -112539409#0 290894746#3 96559159#0 96559159#1 96559159#2 96559159#3 96559159#4 96559159#5 96559159#6 96559159#7 96559159#8 96559159#9 544143634 543999159#0 543999159#1 543999159#2 543999159#3 543999159#5 543999159#6 35135431#0 35135431#1 644442317#0 544113735 548747912 548747913#0 548747913#1 550833862 543988934#0 543988934#1 299911601#0 299911601#2 299911601#3 543940440#0 543940440#2 299911600 299911599#1 614130449#0 614130449#1 625104568 99583990 543940442 614130427 620382832 614130436#0 614130436#1 614130430#1 329894413 -276099155#3 -276099155#2 -276099155#0 30572430#0 30572430#1 30572430#2 229685126#0 229685126#1 543955965#2 543957798 30581023 30581026#0 30581026#1 30581026#2 229685125#0 229685125#1 229685125#2 229685125#3 229685125#4 229685125#5 229685125#6 -54442487#3 -494506202#6 -229569413#1 229569413#1"/>
    </vehicle>
    <vehicle id="veh6" type="veh_passenger" depart="3.95" departLane="best">
        <route edges="-112539447#2 -112539447#1 -548774425#0 -543998087#2 -543998087#1 -543998087#0 -474645854 -474645853#1 -543998080 -57840085#4 -57840085#3 -57840085#2 -57840085#1 -57840085#0 57840087 96559145#0 96559145#1 544128878#0 544128878#1 -675606355#3 -675606355#2 -675606355#1 -675606355#0 -323481986 -548768494#2 -548768494#1 548768492 548768493#0 548768493#2 548768498 548768500 295396144#0 295396144#1 548768495#0 548768495#1 548768495#2 548768495#3 548768495#4 -543987039#1 -543987039#0 30572509#0 30572509#1 30572509#2 30572509#3 30572509#4 30572509#6 30572509#7 30572509#8 -323482038#3 -323482038#2 -323482038#1"/>
    </vehicle>
    <vehicle id="veh7" type="veh_passenger" depart="4.61" departLane="best">
        <route edges="299911036#3 -299911036#3 -299911036#2 -299911036#1 -299911036#0 -543992715 -544119517#10 -544119517#9 -544119517#8 -544119517#7 -544119517#6 -544119517#5 -544119517#4 -544119517#2 -544119517#1 -627398404 -51231484 -499105908 -544133363 -299911597#2 -299911597#1 -544133364 643906728 554677071 552106642 552106644 551326636#0 551326636#1 551326636#2 551326646#0 551326646#1 -107683791#2 -107683791#1 -594300966#5 -594300966#3 -594300966#2 -594300966#1 -594300966#0 112539580#0 112539580#1 112539580#2 112539580#3 112539580#4 112539580#5 212501039#0 212501039#1 212501039#2 230257838"/>
    </vehicle>
    <vehicle id="veh8" type="veh_passenger" depart="5.27" departLane="best" departSpeed="max">
        <route edges="-312840492 -112539409#5 -112539409#4 -112539409#3 -112539409#1 -112539409#0 290894746#3 96559159#0 96559159#1 96559159#2 96559159#3 96559159#4 96559159#5 96559159#6 96559159#7 96559159#8 96559159#9 96559145#0 96559145#1 544128878#0 544128878#1 -675606355#3 -675606355#2 -675606355#1 -675606355#0 57840086#0 57840086#1 57840086#2 57840086#3 57840086#4 57840086#5 57840086#6 57840086#7 57840086#8 57840086#9 57840086#10 57840086#11 57840086#12 288243823 57841424 57841427#1 57841427#2 57841427#3 -608060479 -543992716#1 -543992716#0 -543987044#1 -543987044#0 -30581032#1 -30581032#0 229582726#0 229582726#1 543990203#0 229582730#0 229582730#1 -229204969#6 276110289 288243840#0 288243840#1 288244749"/>
    </vehicle>
    <vehicle id="veh9" type="veh_passenger" depart="5.93" departLane="best">
        <route edges="544117898#1 544117898#2 544117898#3 544117898#4 544117898#5 544117898#6 543988933#0 543988933#1 543955967#0 543955967#1 543955967#2 543955967#4 543955967#5 -30581022#0 -94194636 -390967511#3 -390967511#2 -390967511#1 -548774423#2 -548774423#1 -548774423#0 -307240376 -30581024#1 -30581024#0 543955966 229685124#0 229685124#1 -30572430#2 -30572430#1 -30572430#0 30572526 368652799 548851964 543957814#0 543955979#2 587887916 554677071 552106642 552106644 551326636#0 551326636#1 551326636#2 -551326650#1 -327301969 -108958386#5 -108958386#4 108958407#0 -108958407#0"/>
    </vehicle>
    <vehicle id="veh10" type="veh_passenger" depart="6.59" departLane="best">
        <route edges="544113746#1 544113746#2 627398410#0 627398410#1 544113745#1 544113745#2 544113745#3 544113747 230155578 230155577#0 230155577#1 27823971 549369214#0 549369214#1 549369214#2 549369214#3 331361368"/>
    </vehicle>
    <vehicle id="veh12" type="veh_passenger" depart="7.91" departLane="best">
        <route edges="627377410 -627377410 -627377411 -323505043#8 -323505043#7 -323505043#6 -323505043#5 -323505043#4 -323505043#3 -323505043#2 -323505043#1 -323505043#0 112539384#0 112539384#1 112539384#2 112539384#3 -544119517#2 -544119517#1 -627398404 -51231484 -499105908 -595097178#1 -595097178#0 -543992713 -544113736 -35135485#2 -35135485#1 -35135485#0 93097614#0 93097614#1 93097614#3 307240374 229685121#0 229685121#1 30581023 544176815 544176810 30581024#0 30581024#1 307240375 548774423#0 548774423#1 548774423#2 390967511#1 390967511#2 390967511#3 94194636 30581022#0 -543955967#5 -543955967#4 -543955967#2 -543955967#1 -543955967#0 -609809122#14 -609809122#13 -609809122#12 -609809122#11 -609809122#10"/>
    </vehicle>
    <vehicle id="veh13" type="veh_passenger" depart="8.56" departLane="best">
        <route edges="-229685125#12 229685125#12 229685125#13 -323482055#2 -323482055#1 -323482055#0 299252843#0 299252843#1 299252843#2 28220042#1 -544117898#6 -544117898#5 -544117898#4 -544117898#3 -544117898#2 -544117898#1 -544117898#0 -627043085 -543987040#2 -543987040#1 -229767270#2 -229767270#1 -229767270#0"/>
    </vehicle>
    <vehicle id="veh15" type="veh_passenger" depart="9.88" departLane="best">
        <route edges="544115924#0 -544115924#0 -627377410 -627377411 -323505043#8 -323505043#7 -323505043#6 -323505043#5 -323505043#4 -323505043#3 -323505043#2 -323505043#1 -323505043#0 112539384#0 112539384#1 112539384#2 112539384#3 -544119517#2 -544119517#1 -627398404 -51231484 -499105908 -595097178#1 -595097178#0 -543992713 -544113736 -35135485#2 -35135485#1 -35135485#0 93097614#0 93097614#1 93097614#3 307240374 229685121#0 229685121#1 30581023 30581026#0 30581026#1 30581026#2 229685125#0 229685125#1 229685125#2 229685125#3 229685125#4 229685125#5 229685125#6 229685125#8 229685125#9 -39499156#2 -39499156#1 -39499156#0 39499156#0"/>
    </vehicle>
    <vehicle id="veh17" type="veh_passenger" depart="11.20" departLane="best">
        <route edges="-594300971#2 -594300971#1 -594300971#0 -108958397#2 -108958397#1 107683791#0 107683791#2 552831498#0 552831498#1 552831498#3 551326652 551326654 552106645#0 552106651 552106649 327301967-AddedOnRampEdge 327301967 -367253395#3 -367253395#2 -367253395#1 -367253393#2 -230488484 543955977 -30581040#3 -30581040#2 -30581040#1 -30581040#0 482746565 38747872#0 38747872#1 625272452 625379817#0 -222282188 -306646041#1 -306646041#0 51181790 -229791484 -51181784#3 -51181784#2 -51181784#1 -51181784#0 -543999159#6 -543999159#5 -543999159#3 -543999159#2 -543999159#1 -543999159#0 -544143634 96559145#0 96559145#1 544128878#0 544128878#1 -675606355#3 -675606355#2 -675606355#1 -675606355#0 57840086#0 57840086#1 57840086#2 57840086#3 57840086#4 57840086#5 57840086#6 57840086#7 57840086#8 57840086#9 57840086#10 57840086#11 57840086#12 288243823 57841424 57841427#1 57841427#2 57841427#3 -608060479 -543992716#1 -543992716#0 -543987041#1 -543987041#0 -230565993#4 -230565993#3 230565993#3"/>
    </vehicle>
    <vehicle id="veh18" type="veh_passenger" depart="11.86" departLane="best" departSpeed="max">
        <route edges="54442494#0 54442502#1 330426707#3 299252843#0 299252843#1 299252843#2 28220042#1 543988933#0 543988933#1 543955967#0 543955967#1 543955967#2 543955967#4 543955967#5 94194638#1 307240372#0 307240372#1 307240372#2 307240372#3 307240372#4 307240372#5 307240371 548768506 619465525#0 619465525#2 30581042 548768503#0 548768503#1 548768508 548768494#1 548768494#2 323481989 675606355#0 675606355#1 675606355#2 675606355#3 57840088 544161333#0 544161333#1 -96559159#9 -96559159#8 -96559159#7 -96559159#6 61316862 -312840489 -61316859#0 312840478#0 312840478#1 304002652#0 304002652#1"/>
    </vehicle>
    <vehicle id="veh19" type="veh_passenger" depart="12.52" departLane="best">
        <route edges="549369214#0 549369214#1 549369214#2 549369214#3 331361367#0 331361367#1 229472273 544115925#2 544115926 35978945#0 229472268 229472269 618798450 -618798450 -229472269 28708227"/>
    </vehicle>
    <vehicle id="veh20" type="veh_passenger" depart="13.18" departLane="best">
        <route edges="318290860#0 318290860#1 318290860#2 231614440#1 231614440#2 314995976#0 314995976#1 314995976#2 314995976#3 314995976#4 544113738#0 544113738#1 544113738#2 544113738#3 544113738#4 544113738#5 646570496#0 646570496#1 646570496#2 -544119517#10 -544119517#9 -544119517#8 -544119517#7 -544119517#6 -544119517#5 -544119517#4 -544119517#2 -544119517#1 -627398404 -51231484 -499105908 -544133363 -299911597#2 -299911597#1 -544133364 643906728 554677071 552106642 552106644 551326636#0 551326636#1 551326636#2 551326646#0 551326646#1 -107683791#2 -107683791#1 -594300966#5 -594300966#3 -594300966#2 -594300966#1 -594300966#0 112539580#0 112539580#1 112539580#2 112539580#3 112539580#4 -112539580#4"/>
    </vehicle>
    <vehicle id="veh21" type="veh_passenger" depart="13.83" departLane="best">
        <route edges="-323482055#2 -261406935#1 -54442519#3 -54442519#2 -54442519#1 -54442519#0 229461788#0 229461788#1 229461788#2 229461788#4 229461789#1 229461789#2 -54442512#2 -54442512#1"/>
    </vehicle>
    <vehicle id="veh23" type="veh_passenger" depart="15.15" departLane="best">
        <route edges="-229773142 627039432#2 627039432#3 627039432#4 599405923#1 599405923#2 544161331#0 544161331#2 544161333#0 544161333#1 544143634 543999159#0 543999159#1 543999159#2 543999159#3 543999159#5 543999159#6 35135431#0 35135431#1 644442317#0 544113735 548747912 548747913#0 548747913#1 550833862 543988934#0 543988934#1 299911601#0 299911601#2 299911601#3 543940440#0 543940440#2 299911600 299911599#1 614130449#0 614130449#1 625104568 99583990 543940442 614130427 620382832 614130436#0 614130436#1 614130430#1 329894413 -276099155#3 -276099155#2 -276099155#0 30572430#0 30572430#1 30572430#2 229685126#0 229685126#1 543955965#2 543957798 30581023 30581026#0 30581026#1 30581026#2 229685125#0 229685125#1 229685125#2 229685125#3 229685125#4 229685125#5 229685125#6 -54442487#3"/>
    </vehicle>
    <vehicle id="veh24" type="veh_passenger" depart="15.81" departLane="best">
        <route edges="290894760#1 -290894760#1 -290894760#0 290894756#1 290894746#0 61316869#0 61316869#1 -627039426#1 -627039426#0 -627039425 -536310001 -599409694 -287201199#1 -287201199#0 -287201200 -61316856 -599405923#2 -599405923#1 -599405923#0 -627039432#3 -627039432#2 -627039432#0 -61316849#1 -61316849#0 -627039431"/>
    </vehicle>
    <vehicle id="veh25" type="veh_passenger" depart="16.47" departLane="best">
        <route edges="-59398983 608124979 30581050 608102066#0 608102066#1 608102066#2 608102066#3 608102066#4 608102066#6 330426700#0 330426700#1 330426700#2 330426700#3 -330426700#3"/>
    </vehicle>
    <vehicle id="veh26" type="veh_passenger" depart="17.13" departLane="best">
        <route edges="-39499153 39499153 -229685125#17 -229685125#15 -229685125#14 -229685125#13 -229685125#12 -229685125#11 -229685125#9 -229685125#8 -229685125#6 -229685125#5 -229685125#4 -229685125#3 -229685125#2 -229685125#1 -229685125#0 229685122#0 229685122#1 229685122#2 544176810 543955966 229685124#0 229685124#1 -30572430#2 -30572430#1 -30572430#0 276099155#0 276099155#2 276099155#3 -329894413 -614130430#1 -614130430#0 -614130436#0 299912676 96559163 614130412"/>
    </vehicle>
    <vehicle id="veh27" type="veh_passenger" depart="17.79" departLane="best">
        <route edges="299252843#0 299252843#1 299252843#2 28220042#1 543988933#0 543988933#1 543955967#0 543955967#1 543955967#2 543955967#4 543955967#5 94194638#1 307240372#0 307240372#1 307240372#2 307240372#3 307240372#4 307240372#5 307240371 548768506 548768496#0 548768496#2 295396144#1"/>
    </vehicle>
    <vehicle id="veh28" type="veh_passenger" depart="18.45" departLane="best">
        <route edges="-299911597#2 -299911597#1 -544133364 643906728 -587887916 -543955979#2 -543957814#0 -548851964 -368652799 -30572526 30572430#0 30572430#1 30572430#2 229685126#0 229685126#1 543955965#2 543957798 30581023 30581026#0 30581026#1 30581026#2 229685125#0 229685125#1 229685125#2 229685125#3 229685125#4 229685125#5 229685125#6 229685125#8 229685125#9 229685125#11 229685125#12 229685125#13 229685125#14 229685125#15 229685125#17 -39499153 39499153"/>
    </vehicle>
    <vehicle id="veh29" type="veh_passenger" depart="19.10" departLane="best">
        <route edges="-295282381#2 295282381#2 287202278 287202274#0 287202274#2 608119302#0 608119302#1 28220040#0 28220040#1 28220039#0 28220039#1 -323482064#1 -323482064#0 -30502836#2 -30502836#1 480210533 543994831 480210537 480210535 613421057 480210539 480210540 24831878#0 24831878#1 24831878#2 627261857 543994838 480210549 30502984#0 30502984#1 543994836#0 543994836#1 543994836#2 -69807635#0"/>
    </vehicle>
    <vehicle id="veh30" type="veh_passenger" depart="19.76" departLane="best">
        <route edges="99366826#4 99366826#5 99366826#6 98025993 -544128889#2 -544128889#1 -98025992#1 -98025992#0 96559161#0 287218202#0 287218202#1 287218202#2 287218202#3 627039432#0 627039432#2 627039432#3 627039432#4 599405923#1 599405923#2 544161331#0 544161331#2 544161333#0 544161333#1 544143634 543999159#0 543999159#1 543999159#2 543999159#3 543999159#5 543999159#6 35135431#0 35135431#1 644442317#0 544113735 548747912 548747913#0 548747913#1 550833862 543988934#0 543988934#1 299911601#0 299911601#2 299911601#3 543940440#0 543940440#2 299911600 299911599#1 614130449#0 614130449#1 625104568 99583990 543940442 614130427 620382832 614130436#0 614130436#1 614130430#1 329894413 -276099155#3 -276099155#2 -276099155#0 30572430#0 30572430#1 30572430#2 229685126#0 229685126#1 543955965#2 543957798 30581023"/>
    </vehicle>
    <vehicle id="veh31" type="veh_passenger" depart="20.42" departLane="best">
        <route edges="229582730#1 -229204969#6 -229204969#5 -229204969#4 -229204969#2 -229204969#0 -330426704#2 -330426704#1 -330426704#0 -30572612#4 -30572612#3 -30572612#2 -30572612#1 -30572612#0 28220040#1 28220039#0 28220039#1 330426707#0 330426707#1 330426707#2 330426707#3 299252843#0 299252843#1 299252843#2 28220042#1 543988933#0 543988933#1 543955967#0 543955967#1 543955967#2 543955967#4 543955967#5 107683790#1 107683790#2 107683790#3 107683790#4 646570490 39499157#0 39499157#1 39499157#3 39499157#4 39499157#5 39499157#6 39499157#7 39499157#8 327301940#1"/>
    </vehicle>
    <vehicle id="veh32" type="veh_passenger" depart="21.08" departLane="best">
        <route edges="54442522#2 54442522#3 54442522#4 54442519#0 54442519#1 54442519#2 54442519#3 261406935#1 -323482055#1 -323482055#0 -330426707#3 -54442502#1 54442494#1 -54442506#3 -54442506#2 54442495 59398985 -330426700#1 -330426700#0 330426704#0 330426704#1 330426704#2 330426704#3 229204969#1 229204969#3 229204969#5 229204969#6 229582725#0 229582725#1 543990203#2 544140571 544140572 543990205 30581031 543990201"/>
    </vehicle>
    <vehicle id="veh33" type="veh_passenger" depart="21.74" departLane="best">
        <route edges="-323505043#3 -323505043#2 -323505043#1 -323505043#0 112539384#0 112539384#1 112539384#2 112539384#3 -544119517#2 -544119517#1 -627398404 -51231484 -499105908 -544133363 -299911597#2 -299911597#1 -544133364 643906728 554677071 552106642 552106651 552106649 327301967-AddedOnRampEdge 327301967 -367253395#3 -367253395#2 -367253395#1 -367253393#2 -230488484 543955977 -30581040#3 -30581040#2 -30581040#1 -30581040#0 482746565 38747872#0 38747872#1 625272452 625379817#0 -222282188 -306646041#1 -306646041#0 51181790 96559149 314246465#0 306646040#0 306646040#1 306646040#2 306646040#3 306646040#4 306646040#5 306646040#6 229891890#1 30581045 229891881#0 229891881#1 -548774425#1 -548774425#0 -543998087#2 112539491#1 -112539491#1"/>
    </vehicle>
    <vehicle id="veh34" type="veh_passenger" depart="22.40" departLane="best">
        <route edges="-544133363 544133363 544117897#1 51231484 627398404 544119517#1 544119517#2 544119517#4 544119517#5 -544119517#5"/>
    </vehicle>
    <vehicle id="veh35" type="veh_passenger" depart="23.06" departLane="best" departSpeed="max">
        <route edges="-312840476 -112539409#1 -112539409#0 290894746#3 96559159#0 96559159#1 96559159#2 96559159#3 96559159#4 96559159#5 96559159#6 96559159#7 96559159#8 96559159#9 96559157#0 96559157#1 57840085#0 57840085#1 57840085#2 57840085#3 57840085#4 543998080 474645853#1 474645854 543998087#0 543998087#1 543998087#2 548774425#0 548774425#1 229891871#0 229891871#1 543955968 543946828 543957807 35135437#0 35135437#1 -618039930 618039930"/>
    </vehicle>
    <vehicle id="veh36" type="veh_passenger" depart="23.72" departLane="best">
        <route edges="552106665 552106666 554677074#0 554677071 552106642 552106644 551326636#0 551326636#1 551326636#2 551326646#0 551326646#1 -107683791#2 -107683791#1 -288979528#5 -288979528#3 -288979528#2 -288979528#1 -288979528#0 -543955972#1 -543955972#0 -544121190 158219355 112539438#0 112539438#1 112539438#2 589937898#0 589937898#1 -589937898#1"/>
    </vehicle>
    <vehicle id="veh37" type="veh_passenger" depart="24.37" departLane="best">
        <route edges="304002653#2 -304002653#2 -304002653#1 -304002653#0 -287200627#2 -287200627#1 -287200627#0 -112539510 -437283621#1 -55132515#3 -212501029#1 -112539572#0 -112539466#0 99584009 -99583966#2"/>
    </vehicle>
    <vehicle id="veh38" type="veh_passenger" depart="25.03" departLane="best">
        <route edges="609809122#5 -609809122#5 -609809122#4 -609809122#3 -609809122#2 -609809122#1 -609809122#0 30572422#0 30572422#2 30572422#3 30572422#4 307240372#5 307240371 548768506 619465525#0 619465525#2 30581042 548768503#0 548768503#1 548768508 548768494#1 548768494#2 323481989 675606355#0 675606355#1 675606355#2 675606355#3 57840088 544161333#0 544161333#1 96559157#0 96559157#1 57840085#0 112539601#0 112539601#1 112539563#1"/>
    </vehicle>
    <vehicle id="veh39" type="veh_passenger" depart="25.69" departLane="best">
        <route edges="-390967511#3 390967511#3 94194636 30581022#0 94194638#1 307240372#0 307240372#1 307240372#2 307240372#3 307240372#4 307240372#5 307240371 548768506 619465525#0 619465525#2 30581042 548768503#0 548768503#1 548768508 548768494#1 548768494#2 323481989 675606355#0 675606355#1 675606355#2 675606355#3 57840088 -544161331#2 -544161331#0 -599405923#2 -599405923#1 -599405923#0 -627039432#3 -627039432#2 -627039432#0 -287218202#3 -287218202#2 -287218202#1 -287218202#0 -96559161#0 98025992#0 98025992#1 544128889#1 544128889#2 -98025993 -536309967 -61316872#0 -536309974#2"/>
    </vehicle>
    <vehicle id="veh40" type="veh_passenger" depart="26.35" departLane="best">
        <route edges="229685124#0 229685124#1 -30572430#2 -30572430#1 -30572430#0 30572526 368652799 548851964 543957814#0 543955979#2 587887916 643906741 544133364 299911597#1 299911597#2 544133363 544117897#1 51231484 627398404 544119517#1 544119517#2 544119517#4 544119517#5 544119517#6 544119517#7 544119517#8 544119517#9 544119517#10 -646570496#2 -646570496#1 -646570496#0 -544113738#5 -544113738#4 -544113738#3 -544113738#2"/>
    </vehicle>
    <vehicle id="veh41" type="veh_passenger" depart="27.01" departLane="best">
        <route edges="229891862#0 229891862#1 543957807 35135437#0 35135437#1 -618039930 99583975#0 99583975#1 543946832#0 543946832#1 543946832#3 543946832#4 543946832#5 544121190 543955972#0 543955972#1 543955972#2 288979528#1 288979528#2 288979528#3 288979528#4 -594300966#5 -594300966#3 -594300966#2 594300966#2"/>
    </vehicle>
    <vehicle id="veh42" type="veh_passenger" depart="27.67" departLane="best">
        <route edges="-61314979#3 -61314979#2 -61314979#0 61314985#5 61314985#6 96563318 611119751#0 611119751#1 611119751#2 480210539 480210540 24831878#0 24831878#1 24831878#2 480210542 -611119757#1 -611119757#0 -24831921#1 -24831921#0 627261856 -35135486#11 -35135486#10"/>
    </vehicle>
    <vehicle id="veh43" type="veh_passenger" depart="28.33" departLane="best">
        <route edges="99583990 543940442 614130442 614130412 543940441#0 543940441#1 614130444 614130451 -299911599#1 -299911600 -543940440#2 -543940440#1 -299911601#3 -299911601#2 -299911601#1 -543988934#1 -543988934#0 -550833862 -548747913#1 -548747913#0 -51181767 -548747916 -614030864#3 -614030864#2 -614030864#1 -614030864#0 -307240378#2 -307240378#1 -307240378#0 -548768489 30572520#0 30572520#2 548768500 295396144#0 295396144#1 548768495#0 548768495#1 548768495#2 548768495#3 548768495#4 -543987039#1 -543987039#0 -229594810 -229696617#2 -229696617#1 -608060479 -543992716#1 -543992716#0 -543987044#1 -543987044#0 -30581032#1 -30581032#0 229582726#0 229582726#1 543990203#0 229582730#0 229582725#1 543990203#2 229582733"/>
    </vehicle>
    <vehicle id="veh44" type="veh_passenger" depart="28.99" departLane="best">
        <route edges="-229681309#1 229681309#1 -229685125#4 -229685125#3 -229685125#2 -229685125#1 -229685125#0 229685122#0 229685122#1 229685122#2 544176810 543955966 229685124#0 229685124#1 -30572430#2 -30572430#1 -30572430#0 276099155#0 276099155#2 276099155#3 -329894413 -614130430#1 -614130430#0 -614130436#0 299912676 96559163 614130412 543940441#0 543940441#1 614130444 614130451 -299911599#1 -299911600 -543940440#2 -543940440#1 -299911601#3 -299911601#2 -299911601#1 -543988934#1 -543988934#0 -550833862 -548747913#1 -548747913#0 -51181767 -548747915 -544113735 -644442317#0 -99583984 -35135431#0 -543999159#6 -543999159#5 -543999159#3 -543999159#2 -543999159#1 112539395 -112539601#0"/>
    </vehicle>
    <vehicle id="veh45" type="veh_passenger" depart="29.64" departLane="best" departSpeed="max">
        <route edges="-230257838 -212501039#2 -212501039#1 -212501039#0 -594300969#0 -112539580#4 -112539580#3 -112539580#2 -112539580#1 -112539580#0 594300966#0 594300966#1 594300966#2 594300966#3 594300966#4 107683791#0 107683791#2 552831498#0 552831498#1 552831498#3 551326652 551326649#0 551326649#1 552106667 552106658#0 -587887916 -543955979#2 -543957814#0 -548851964 -368652799 -30572526 30572430#0 30572430#1 30572430#2 229685126#0 229685126#1 543955965#2 543957798 30581023 544176815 544176810 30581024#0 30581024#1 307240375 548774423#0 548774423#1 548774423#2 390967511#1 390967511#2 390967511#3 94194636 30581022#0 -543955967#5 -543955967#4 -543955967#2 -30572250#4 -30572250#3 -30572250#2 -30572250#1 -30572250#0 30572422#2"/>
    </vehicle>
    <vehicle id="veh46" type="veh_passenger" depart="30.30" departLane="best">
        <route edges="543992713 595097178#0 595097178#1 544117897#1 51231484 627398404 544119517#1 544119517#2 -337440856#0 112539606 112539416#9"/>
    </vehicle>
    <vehicle id="veh47" type="veh_passenger" depart="30.96" departLane="best">
        <route edges="-186021783#1 186021783#1 186021783#2 674085563 204595240 627377408#0 544119518#0 544119518#1 544119518#2 544119518#3 544119518#4 544119518#5 544119518#6 544119518#7 544119518#8 627377414 627377413#0 627377413#1 627377413#2 627377413#3 544115923#0 544115923#1 229472444 229472443 -618798450 -229472269 28708227 35978945#2 35978945#3 35978945#4 229472272 -331361367#1 -331361367#0 -549369214#3 -549369214#2 -549369214#1 -549369214#0 -27823971 230155583#0 230155583#1 544113746#1 544113746#2 627398410#0 627398410#1 544113745#1 -613419097 -548718414#4 -548718414#3 -548718414#2 -548718414#1 -548718414#0 230155582 548718413 90537906 606416512#0 -606416512#0 -90537906"/>
    </vehicle>
    <vehicle id="veh48" type="veh_passenger" depart="31.62" departLane="best">
        <route edges="99583983#0 99583983#1 543940441#1 614130444 614130451 -299911599#1 -299911600 -543940440#2 -543940440#1 -299911601#3 -299911601#2 -299911601#1 -543988934#1 -543988934#0 -550833862 -548747913#1 -548747913#0 -51181767 -548747915 -544113735 -644442317#0 -99583984 -35135431#0 -543999159#6 -543999159#5 -543999159#3 -543999159#2 -543999159#1 -543999159#0 -544143634 96559145#0 96559145#1 -544161331#2 -544161331#0 -599405923#2 -599405923#1 -599405923#0 -627039432#3 229773148"/>
    </vehicle>
    <vehicle id="veh49" type="veh_passenger" depart="32.28" departLane="best">